data_ws2_wse2_junction_68disloc
_audit_creation_date              2025-09-05
_audit_creation_method            'Materials Studio'
_symmetry_space_group_name_H-M    'P1'
_symmetry_Int_Tables_number       1
_symmetry_cell_setting            triclinic
loop_
_symmetry_equiv_pos_as_xyz
  x,y,z
_cell_length_a                    255.6100
_cell_length_b                    74.0500
_cell_length_c                    60.0000
_cell_angle_alpha                 90.0000
_cell_angle_beta                  90.0000
_cell_angle_gamma                 90.0000
loop_
_atom_site_label
_atom_site_type_symbol
_atom_site_fract_x
_atom_site_fract_y
_atom_site_fract_z
_atom_site_U_iso_or_equiv
_atom_site_adp_type
_atom_site_occupancy
W1     W     0.25502   0.02746   0.10108   0.00000  Uiso   1.00
S2     S     0.26119   0.03975   0.12767   0.00000  Uiso   1.00
S3     S     0.26119   0.03975   0.07450   0.00000  Uiso   1.00
W4     W     0.24886   0.06433   0.10108   0.00000  Uiso   1.00
S5     S     0.25502   0.07662   0.12767   0.00000  Uiso   1.00
S6     S     0.25502   0.07662   0.07450   0.00000  Uiso   1.00
W7     W     0.24269   0.10120   0.10108   0.00000  Uiso   1.00
S8     S     0.24886   0.11350   0.12767   0.00000  Uiso   1.00
S9     S     0.24886   0.11350   0.07450   0.00000  Uiso   1.00
W10    W     0.23652   0.13808   0.10108   0.00000  Uiso   1.00
S11    S     0.24269   0.15037   0.12767   0.00000  Uiso   1.00
S12    S     0.24269   0.15037   0.07450   0.00000  Uiso   1.00
W13    W     0.23035   0.17495   0.10108   0.00000  Uiso   1.00
S14    S     0.23652   0.18725   0.12767   0.00000  Uiso   1.00
S15    S     0.23652   0.18725   0.07450   0.00000  Uiso   1.00
W16    W     0.22419   0.21183   0.10108   0.00000  Uiso   1.00
S17    S     0.23035   0.22412   0.12767   0.00000  Uiso   1.00
S18    S     0.23035   0.22412   0.07450   0.00000  Uiso   1.00
W19    W     0.21802   0.24870   0.10108   0.00000  Uiso   1.00
S20    S     0.22419   0.26100   0.12767   0.00000  Uiso   1.00
S21    S     0.22419   0.26100   0.07450   0.00000  Uiso   1.00
W22    W     0.21185   0.28558   0.10108   0.00000  Uiso   1.00
S23    S     0.21802   0.29787   0.12767   0.00000  Uiso   1.00
S24    S     0.21802   0.29787   0.07450   0.00000  Uiso   1.00
W25    W     0.20568   0.32245   0.10108   0.00000  Uiso   1.00
S26    S     0.21185   0.33474   0.12767   0.00000  Uiso   1.00
S27    S     0.21185   0.33474   0.07450   0.00000  Uiso   1.00
W28    W     0.19951   0.35933   0.10108   0.00000  Uiso   1.00
S29    S     0.20568   0.37162   0.12767   0.00000  Uiso   1.00
S30    S     0.20568   0.37162   0.07450   0.00000  Uiso   1.00
W31    W     0.19335   0.39620   0.10108   0.00000  Uiso   1.00
S32    S     0.19951   0.40849   0.12767   0.00000  Uiso   1.00
S33    S     0.19951   0.40849   0.07450   0.00000  Uiso   1.00
W34    W     0.18718   0.43308   0.10108   0.00000  Uiso   1.00
S35    S     0.19335   0.44537   0.12767   0.00000  Uiso   1.00
S36    S     0.19335   0.44537   0.07450   0.00000  Uiso   1.00
W37    W     0.18101   0.46995   0.10108   0.00000  Uiso   1.00
S38    S     0.18718   0.48224   0.12767   0.00000  Uiso   1.00
S39    S     0.18718   0.48224   0.07450   0.00000  Uiso   1.00
W40    W     0.17484   0.50683   0.10108   0.00000  Uiso   1.00
S41    S     0.18101   0.51912   0.12767   0.00000  Uiso   1.00
S42    S     0.18101   0.51912   0.07450   0.00000  Uiso   1.00
W43    W     0.16868   0.54370   0.10108   0.00000  Uiso   1.00
S44    S     0.17484   0.55599   0.12767   0.00000  Uiso   1.00
S45    S     0.17484   0.55599   0.07450   0.00000  Uiso   1.00
W46    W     0.16251   0.58058   0.10108   0.00000  Uiso   1.00
S47    S     0.16868   0.59287   0.12767   0.00000  Uiso   1.00
S48    S     0.16868   0.59287   0.07450   0.00000  Uiso   1.00
W49    W     0.15634   0.61745   0.10108   0.00000  Uiso   1.00
S50    S     0.16251   0.62974   0.12767   0.00000  Uiso   1.00
S51    S     0.16251   0.62974   0.07450   0.00000  Uiso   1.00
W52    W     0.15017   0.65433   0.10108   0.00000  Uiso   1.00
S53    S     0.15634   0.66662   0.12767   0.00000  Uiso   1.00
S54    S     0.15634   0.66662   0.07450   0.00000  Uiso   1.00
W55    W     0.14401   0.69120   0.10108   0.00000  Uiso   1.00
S56    S     0.15017   0.70349   0.12767   0.00000  Uiso   1.00
S57    S     0.15017   0.70349   0.07450   0.00000  Uiso   1.00
W58    W     0.13784   0.72808   0.10108   0.00000  Uiso   1.00
S59    S     0.14401   0.74037   0.12767   0.00000  Uiso   1.00
S60    S     0.14401   0.74037   0.07450   0.00000  Uiso   1.00
W61    W     0.13167   0.76495   0.10108   0.00000  Uiso   1.00
S62    S     0.13784   0.77724   0.12767   0.00000  Uiso   1.00
S63    S     0.13784   0.77724   0.07450   0.00000  Uiso   1.00
W64    W     0.12550   0.80183   0.10108   0.00000  Uiso   1.00
S65    S     0.13167   0.81412   0.12767   0.00000  Uiso   1.00
S66    S     0.13167   0.81412   0.07450   0.00000  Uiso   1.00
W67    W     0.11934   0.83870   0.10108   0.00000  Uiso   1.00
S68    S     0.12550   0.85099   0.12767   0.00000  Uiso   1.00
S69    S     0.12550   0.85099   0.07450   0.00000  Uiso   1.00
W70    W     0.11317   0.87558   0.10108   0.00000  Uiso   1.00
S71    S     0.11934   0.88787   0.12767   0.00000  Uiso   1.00
S72    S     0.11934   0.88787   0.07450   0.00000  Uiso   1.00
W73    W     0.10700   0.91245   0.10108   0.00000  Uiso   1.00
S74    S     0.11317   0.92474   0.12767   0.00000  Uiso   1.00
S75    S     0.11317   0.92474   0.07450   0.00000  Uiso   1.00
W76    W     0.10083   0.94932   0.10108   0.00000  Uiso   1.00
S77    S     0.10700   0.96162   0.12767   0.00000  Uiso   1.00
S78    S     0.10700   0.96162   0.07450   0.00000  Uiso   1.00
W79    W     0.26736   0.02746   0.10108   0.00000  Uiso   1.00
S80    S     0.27353   0.03975   0.12767   0.00000  Uiso   1.00
S81    S     0.27353   0.03975   0.07450   0.00000  Uiso   1.00
W82    W     0.26119   0.06433   0.10108   0.00000  Uiso   1.00
S83    S     0.26736   0.07662   0.12767   0.00000  Uiso   1.00
S84    S     0.26736   0.07662   0.07450   0.00000  Uiso   1.00
W85    W     0.25502   0.10120   0.10108   0.00000  Uiso   1.00
S86    S     0.26119   0.11350   0.12767   0.00000  Uiso   1.00
S87    S     0.26119   0.11350   0.07450   0.00000  Uiso   1.00
W88    W     0.24886   0.13808   0.10108   0.00000  Uiso   1.00
S89    S     0.25502   0.15037   0.12767   0.00000  Uiso   1.00
S90    S     0.25502   0.15037   0.07450   0.00000  Uiso   1.00
W91    W     0.24269   0.17495   0.10108   0.00000  Uiso   1.00
S92    S     0.24886   0.18725   0.12767   0.00000  Uiso   1.00
S93    S     0.24886   0.18725   0.07450   0.00000  Uiso   1.00
W94    W     0.23652   0.21183   0.10108   0.00000  Uiso   1.00
S95    S     0.24269   0.22412   0.12767   0.00000  Uiso   1.00
S96    S     0.24269   0.22412   0.07450   0.00000  Uiso   1.00
W97    W     0.23035   0.24870   0.10108   0.00000  Uiso   1.00
S98    S     0.23652   0.26100   0.12767   0.00000  Uiso   1.00
S99    S     0.23652   0.26100   0.07450   0.00000  Uiso   1.00
W100   W     0.22419   0.28558   0.10108   0.00000  Uiso   1.00
S101   S     0.23035   0.29787   0.12767   0.00000  Uiso   1.00
S102   S     0.23035   0.29787   0.07450   0.00000  Uiso   1.00
W103   W     0.21802   0.32245   0.10108   0.00000  Uiso   1.00
S104   S     0.22419   0.33474   0.12767   0.00000  Uiso   1.00
S105   S     0.22419   0.33474   0.07450   0.00000  Uiso   1.00
W106   W     0.21185   0.35933   0.10108   0.00000  Uiso   1.00
S107   S     0.21802   0.37162   0.12767   0.00000  Uiso   1.00
S108   S     0.21802   0.37162   0.07450   0.00000  Uiso   1.00
W109   W     0.20568   0.39620   0.10108   0.00000  Uiso   1.00
S110   S     0.21185   0.40849   0.12767   0.00000  Uiso   1.00
S111   S     0.21185   0.40849   0.07450   0.00000  Uiso   1.00
W112   W     0.19951   0.43308   0.10108   0.00000  Uiso   1.00
S113   S     0.20568   0.44537   0.12767   0.00000  Uiso   1.00
S114   S     0.20568   0.44537   0.07450   0.00000  Uiso   1.00
W115   W     0.19335   0.46995   0.10108   0.00000  Uiso   1.00
S116   S     0.19951   0.48224   0.12767   0.00000  Uiso   1.00
S117   S     0.19951   0.48224   0.07450   0.00000  Uiso   1.00
W118   W     0.18718   0.50683   0.10108   0.00000  Uiso   1.00
S119   S     0.19335   0.51912   0.12767   0.00000  Uiso   1.00
S120   S     0.19335   0.51912   0.07450   0.00000  Uiso   1.00
W121   W     0.18101   0.54370   0.10108   0.00000  Uiso   1.00
S122   S     0.18718   0.55599   0.12767   0.00000  Uiso   1.00
S123   S     0.18718   0.55599   0.07450   0.00000  Uiso   1.00
W124   W     0.17484   0.58058   0.10108   0.00000  Uiso   1.00
S125   S     0.18101   0.59287   0.12767   0.00000  Uiso   1.00
S126   S     0.18101   0.59287   0.07450   0.00000  Uiso   1.00
W127   W     0.16868   0.61745   0.10108   0.00000  Uiso   1.00
S128   S     0.17484   0.62974   0.12767   0.00000  Uiso   1.00
S129   S     0.17484   0.62974   0.07450   0.00000  Uiso   1.00
W130   W     0.16251   0.65433   0.10108   0.00000  Uiso   1.00
S131   S     0.16868   0.66662   0.12767   0.00000  Uiso   1.00
S132   S     0.16868   0.66662   0.07450   0.00000  Uiso   1.00
W133   W     0.15634   0.69120   0.10108   0.00000  Uiso   1.00
S134   S     0.16251   0.70349   0.12767   0.00000  Uiso   1.00
S135   S     0.16251   0.70349   0.07450   0.00000  Uiso   1.00
W136   W     0.15017   0.72808   0.10108   0.00000  Uiso   1.00
S137   S     0.15634   0.74037   0.12767   0.00000  Uiso   1.00
S138   S     0.15634   0.74037   0.07450   0.00000  Uiso   1.00
W139   W     0.14401   0.76495   0.10108   0.00000  Uiso   1.00
S140   S     0.15017   0.77724   0.12767   0.00000  Uiso   1.00
S141   S     0.15017   0.77724   0.07450   0.00000  Uiso   1.00
W142   W     0.13784   0.80183   0.10108   0.00000  Uiso   1.00
S143   S     0.14401   0.81412   0.12767   0.00000  Uiso   1.00
S144   S     0.14401   0.81412   0.07450   0.00000  Uiso   1.00
W145   W     0.13167   0.83870   0.10108   0.00000  Uiso   1.00
S146   S     0.13784   0.85099   0.12767   0.00000  Uiso   1.00
S147   S     0.13784   0.85099   0.07450   0.00000  Uiso   1.00
W148   W     0.12550   0.87558   0.10108   0.00000  Uiso   1.00
S149   S     0.13167   0.88787   0.12767   0.00000  Uiso   1.00
S150   S     0.13167   0.88787   0.07450   0.00000  Uiso   1.00
W151   W     0.11934   0.91245   0.10108   0.00000  Uiso   1.00
S152   S     0.12550   0.92474   0.12767   0.00000  Uiso   1.00
S153   S     0.12550   0.92474   0.07450   0.00000  Uiso   1.00
W154   W     0.11317   0.94932   0.10108   0.00000  Uiso   1.00
S155   S     0.11934   0.96162   0.12767   0.00000  Uiso   1.00
S156   S     0.11934   0.96162   0.07450   0.00000  Uiso   1.00
W157   W     0.27969   0.02746   0.10108   0.00000  Uiso   1.00
S158   S     0.28586   0.03975   0.12767   0.00000  Uiso   1.00
S159   S     0.28586   0.03975   0.07450   0.00000  Uiso   1.00
W160   W     0.27353   0.06433   0.10108   0.00000  Uiso   1.00
S161   S     0.27969   0.07662   0.12767   0.00000  Uiso   1.00
S162   S     0.27969   0.07662   0.07450   0.00000  Uiso   1.00
W163   W     0.26736   0.10120   0.10108   0.00000  Uiso   1.00
S164   S     0.27353   0.11350   0.12767   0.00000  Uiso   1.00
S165   S     0.27353   0.11350   0.07450   0.00000  Uiso   1.00
W166   W     0.26119   0.13808   0.10108   0.00000  Uiso   1.00
S167   S     0.26736   0.15037   0.12767   0.00000  Uiso   1.00
S168   S     0.26736   0.15037   0.07450   0.00000  Uiso   1.00
W169   W     0.25502   0.17495   0.10108   0.00000  Uiso   1.00
S170   S     0.26119   0.18725   0.12767   0.00000  Uiso   1.00
S171   S     0.26119   0.18725   0.07450   0.00000  Uiso   1.00
W172   W     0.24886   0.21183   0.10108   0.00000  Uiso   1.00
S173   S     0.25502   0.22412   0.12767   0.00000  Uiso   1.00
S174   S     0.25502   0.22412   0.07450   0.00000  Uiso   1.00
W175   W     0.24269   0.24870   0.10108   0.00000  Uiso   1.00
S176   S     0.24886   0.26100   0.12767   0.00000  Uiso   1.00
S177   S     0.24886   0.26100   0.07450   0.00000  Uiso   1.00
W178   W     0.23652   0.28558   0.10108   0.00000  Uiso   1.00
S179   S     0.24269   0.29787   0.12767   0.00000  Uiso   1.00
S180   S     0.24269   0.29787   0.07450   0.00000  Uiso   1.00
W181   W     0.23035   0.32245   0.10108   0.00000  Uiso   1.00
S182   S     0.23652   0.33474   0.12767   0.00000  Uiso   1.00
S183   S     0.23652   0.33474   0.07450   0.00000  Uiso   1.00
W184   W     0.22419   0.35933   0.10108   0.00000  Uiso   1.00
S185   S     0.23035   0.37162   0.12767   0.00000  Uiso   1.00
S186   S     0.23035   0.37162   0.07450   0.00000  Uiso   1.00
W187   W     0.21802   0.39620   0.10108   0.00000  Uiso   1.00
S188   S     0.22419   0.40849   0.12767   0.00000  Uiso   1.00
S189   S     0.22419   0.40849   0.07450   0.00000  Uiso   1.00
W190   W     0.21185   0.43308   0.10108   0.00000  Uiso   1.00
S191   S     0.21802   0.44537   0.12767   0.00000  Uiso   1.00
S192   S     0.21802   0.44537   0.07450   0.00000  Uiso   1.00
W193   W     0.20568   0.46995   0.10108   0.00000  Uiso   1.00
S194   S     0.21185   0.48224   0.12767   0.00000  Uiso   1.00
S195   S     0.21185   0.48224   0.07450   0.00000  Uiso   1.00
W196   W     0.19951   0.50683   0.10108   0.00000  Uiso   1.00
S197   S     0.20568   0.51912   0.12767   0.00000  Uiso   1.00
S198   S     0.20568   0.51912   0.07450   0.00000  Uiso   1.00
W199   W     0.19335   0.54370   0.10108   0.00000  Uiso   1.00
S200   S     0.19951   0.55599   0.12767   0.00000  Uiso   1.00
S201   S     0.19951   0.55599   0.07450   0.00000  Uiso   1.00
W202   W     0.18718   0.58058   0.10108   0.00000  Uiso   1.00
S203   S     0.19335   0.59287   0.12767   0.00000  Uiso   1.00
S204   S     0.19335   0.59287   0.07450   0.00000  Uiso   1.00
W205   W     0.18101   0.61745   0.10108   0.00000  Uiso   1.00
S206   S     0.18718   0.62974   0.12767   0.00000  Uiso   1.00
S207   S     0.18718   0.62974   0.07450   0.00000  Uiso   1.00
W208   W     0.17484   0.65433   0.10108   0.00000  Uiso   1.00
S209   S     0.18101   0.66662   0.12767   0.00000  Uiso   1.00
S210   S     0.18101   0.66662   0.07450   0.00000  Uiso   1.00
W211   W     0.16868   0.69120   0.10108   0.00000  Uiso   1.00
S212   S     0.17484   0.70349   0.12767   0.00000  Uiso   1.00
S213   S     0.17484   0.70349   0.07450   0.00000  Uiso   1.00
W214   W     0.16251   0.72808   0.10108   0.00000  Uiso   1.00
S215   S     0.16868   0.74037   0.12767   0.00000  Uiso   1.00
S216   S     0.16868   0.74037   0.07450   0.00000  Uiso   1.00
W217   W     0.15634   0.76495   0.10108   0.00000  Uiso   1.00
S218   S     0.16251   0.77724   0.12767   0.00000  Uiso   1.00
S219   S     0.16251   0.77724   0.07450   0.00000  Uiso   1.00
W220   W     0.15017   0.80183   0.10108   0.00000  Uiso   1.00
S221   S     0.15634   0.81412   0.12767   0.00000  Uiso   1.00
S222   S     0.15634   0.81412   0.07450   0.00000  Uiso   1.00
W223   W     0.14401   0.83870   0.10108   0.00000  Uiso   1.00
S224   S     0.15017   0.85099   0.12767   0.00000  Uiso   1.00
S225   S     0.15017   0.85099   0.07450   0.00000  Uiso   1.00
W226   W     0.13784   0.87558   0.10108   0.00000  Uiso   1.00
S227   S     0.14401   0.88787   0.12767   0.00000  Uiso   1.00
S228   S     0.14401   0.88787   0.07450   0.00000  Uiso   1.00
W229   W     0.13167   0.91245   0.10108   0.00000  Uiso   1.00
S230   S     0.13784   0.92474   0.12767   0.00000  Uiso   1.00
S231   S     0.13784   0.92474   0.07450   0.00000  Uiso   1.00
W232   W     0.12550   0.94932   0.10108   0.00000  Uiso   1.00
S233   S     0.13167   0.96162   0.12767   0.00000  Uiso   1.00
S234   S     0.13167   0.96162   0.07450   0.00000  Uiso   1.00
W235   W     0.29203   0.02746   0.10108   0.00000  Uiso   1.00
S236   S     0.29820   0.03975   0.12767   0.00000  Uiso   1.00
S237   S     0.29820   0.03975   0.07450   0.00000  Uiso   1.00
W238   W     0.28586   0.06433   0.10108   0.00000  Uiso   1.00
S239   S     0.29203   0.07662   0.12767   0.00000  Uiso   1.00
S240   S     0.29203   0.07662   0.07450   0.00000  Uiso   1.00
W241   W     0.27969   0.10120   0.10108   0.00000  Uiso   1.00
S242   S     0.28586   0.11350   0.12767   0.00000  Uiso   1.00
S243   S     0.28586   0.11350   0.07450   0.00000  Uiso   1.00
W244   W     0.27353   0.13808   0.10108   0.00000  Uiso   1.00
S245   S     0.27969   0.15037   0.12767   0.00000  Uiso   1.00
S246   S     0.27969   0.15037   0.07450   0.00000  Uiso   1.00
W247   W     0.26736   0.17495   0.10108   0.00000  Uiso   1.00
S248   S     0.27353   0.18725   0.12767   0.00000  Uiso   1.00
S249   S     0.27353   0.18725   0.07450   0.00000  Uiso   1.00
W250   W     0.26119   0.21183   0.10108   0.00000  Uiso   1.00
S251   S     0.26736   0.22412   0.12767   0.00000  Uiso   1.00
S252   S     0.26736   0.22412   0.07450   0.00000  Uiso   1.00
W253   W     0.25502   0.24870   0.10108   0.00000  Uiso   1.00
S254   S     0.26119   0.26100   0.12767   0.00000  Uiso   1.00
S255   S     0.26119   0.26100   0.07450   0.00000  Uiso   1.00
W256   W     0.24886   0.28558   0.10108   0.00000  Uiso   1.00
S257   S     0.25502   0.29787   0.12767   0.00000  Uiso   1.00
S258   S     0.25502   0.29787   0.07450   0.00000  Uiso   1.00
W259   W     0.24269   0.32245   0.10108   0.00000  Uiso   1.00
S260   S     0.24886   0.33474   0.12767   0.00000  Uiso   1.00
S261   S     0.24886   0.33474   0.07450   0.00000  Uiso   1.00
W262   W     0.23652   0.35933   0.10108   0.00000  Uiso   1.00
S263   S     0.24269   0.37162   0.12767   0.00000  Uiso   1.00
S264   S     0.24269   0.37162   0.07450   0.00000  Uiso   1.00
W265   W     0.23035   0.39620   0.10108   0.00000  Uiso   1.00
S266   S     0.23652   0.40849   0.12767   0.00000  Uiso   1.00
S267   S     0.23652   0.40849   0.07450   0.00000  Uiso   1.00
W268   W     0.22419   0.43308   0.10108   0.00000  Uiso   1.00
S269   S     0.23035   0.44537   0.12767   0.00000  Uiso   1.00
S270   S     0.23035   0.44537   0.07450   0.00000  Uiso   1.00
W271   W     0.21802   0.46995   0.10108   0.00000  Uiso   1.00
S272   S     0.22419   0.48224   0.12767   0.00000  Uiso   1.00
S273   S     0.22419   0.48224   0.07450   0.00000  Uiso   1.00
W274   W     0.21185   0.50683   0.10108   0.00000  Uiso   1.00
S275   S     0.21802   0.51912   0.12767   0.00000  Uiso   1.00
S276   S     0.21802   0.51912   0.07450   0.00000  Uiso   1.00
W277   W     0.20568   0.54370   0.10108   0.00000  Uiso   1.00
S278   S     0.21185   0.55599   0.12767   0.00000  Uiso   1.00
S279   S     0.21185   0.55599   0.07450   0.00000  Uiso   1.00
W280   W     0.19951   0.58058   0.10108   0.00000  Uiso   1.00
S281   S     0.20568   0.59287   0.12767   0.00000  Uiso   1.00
S282   S     0.20568   0.59287   0.07450   0.00000  Uiso   1.00
W283   W     0.19335   0.61745   0.10108   0.00000  Uiso   1.00
S284   S     0.19951   0.62974   0.12767   0.00000  Uiso   1.00
S285   S     0.19951   0.62974   0.07450   0.00000  Uiso   1.00
W286   W     0.18718   0.65433   0.10108   0.00000  Uiso   1.00
S287   S     0.19335   0.66662   0.12767   0.00000  Uiso   1.00
S288   S     0.19335   0.66662   0.07450   0.00000  Uiso   1.00
W289   W     0.18101   0.69120   0.10108   0.00000  Uiso   1.00
S290   S     0.18718   0.70349   0.12767   0.00000  Uiso   1.00
S291   S     0.18718   0.70349   0.07450   0.00000  Uiso   1.00
W292   W     0.17484   0.72808   0.10108   0.00000  Uiso   1.00
S293   S     0.18101   0.74037   0.12767   0.00000  Uiso   1.00
S294   S     0.18101   0.74037   0.07450   0.00000  Uiso   1.00
W295   W     0.16868   0.76495   0.10108   0.00000  Uiso   1.00
S296   S     0.17484   0.77724   0.12767   0.00000  Uiso   1.00
S297   S     0.17484   0.77724   0.07450   0.00000  Uiso   1.00
W298   W     0.16251   0.80183   0.10108   0.00000  Uiso   1.00
S299   S     0.16868   0.81412   0.12767   0.00000  Uiso   1.00
S300   S     0.16868   0.81412   0.07450   0.00000  Uiso   1.00
W301   W     0.15634   0.83870   0.10108   0.00000  Uiso   1.00
S302   S     0.16251   0.85099   0.12767   0.00000  Uiso   1.00
S303   S     0.16251   0.85099   0.07450   0.00000  Uiso   1.00
W304   W     0.15017   0.87558   0.10108   0.00000  Uiso   1.00
S305   S     0.15634   0.88787   0.12767   0.00000  Uiso   1.00
S306   S     0.15634   0.88787   0.07450   0.00000  Uiso   1.00
W307   W     0.14401   0.91245   0.10108   0.00000  Uiso   1.00
S308   S     0.15017   0.92474   0.12767   0.00000  Uiso   1.00
S309   S     0.15017   0.92474   0.07450   0.00000  Uiso   1.00
W310   W     0.13784   0.94932   0.10108   0.00000  Uiso   1.00
S311   S     0.14401   0.96162   0.12767   0.00000  Uiso   1.00
S312   S     0.14401   0.96162   0.07450   0.00000  Uiso   1.00
W313   W     0.30436   0.02746   0.10108   0.00000  Uiso   1.00
S314   S     0.31053   0.03975   0.12767   0.00000  Uiso   1.00
S315   S     0.31053   0.03975   0.07450   0.00000  Uiso   1.00
W316   W     0.29820   0.06433   0.10108   0.00000  Uiso   1.00
S317   S     0.30436   0.07662   0.12767   0.00000  Uiso   1.00
S318   S     0.30436   0.07662   0.07450   0.00000  Uiso   1.00
W319   W     0.29203   0.10120   0.10108   0.00000  Uiso   1.00
S320   S     0.29820   0.11350   0.12767   0.00000  Uiso   1.00
S321   S     0.29820   0.11350   0.07450   0.00000  Uiso   1.00
W322   W     0.28586   0.13808   0.10108   0.00000  Uiso   1.00
S323   S     0.29203   0.15037   0.12767   0.00000  Uiso   1.00
S324   S     0.29203   0.15037   0.07450   0.00000  Uiso   1.00
W325   W     0.27969   0.17495   0.10108   0.00000  Uiso   1.00
S326   S     0.28586   0.18725   0.12767   0.00000  Uiso   1.00
S327   S     0.28586   0.18725   0.07450   0.00000  Uiso   1.00
W328   W     0.27353   0.21183   0.10108   0.00000  Uiso   1.00
S329   S     0.27969   0.22412   0.12767   0.00000  Uiso   1.00
S330   S     0.27969   0.22412   0.07450   0.00000  Uiso   1.00
W331   W     0.26736   0.24870   0.10108   0.00000  Uiso   1.00
S332   S     0.27353   0.26100   0.12767   0.00000  Uiso   1.00
S333   S     0.27353   0.26100   0.07450   0.00000  Uiso   1.00
W334   W     0.26119   0.28558   0.10108   0.00000  Uiso   1.00
S335   S     0.26736   0.29787   0.12767   0.00000  Uiso   1.00
S336   S     0.26736   0.29787   0.07450   0.00000  Uiso   1.00
W337   W     0.25502   0.32245   0.10108   0.00000  Uiso   1.00
S338   S     0.26119   0.33474   0.12767   0.00000  Uiso   1.00
S339   S     0.26119   0.33474   0.07450   0.00000  Uiso   1.00
W340   W     0.24886   0.35933   0.10108   0.00000  Uiso   1.00
S341   S     0.25502   0.37162   0.12767   0.00000  Uiso   1.00
S342   S     0.25502   0.37162   0.07450   0.00000  Uiso   1.00
W343   W     0.24269   0.39620   0.10108   0.00000  Uiso   1.00
S344   S     0.24886   0.40849   0.12767   0.00000  Uiso   1.00
S345   S     0.24886   0.40849   0.07450   0.00000  Uiso   1.00
W346   W     0.23652   0.43308   0.10108   0.00000  Uiso   1.00
S347   S     0.24269   0.44537   0.12767   0.00000  Uiso   1.00
S348   S     0.24269   0.44537   0.07450   0.00000  Uiso   1.00
W349   W     0.23035   0.46995   0.10108   0.00000  Uiso   1.00
S350   S     0.23652   0.48224   0.12767   0.00000  Uiso   1.00
S351   S     0.23652   0.48224   0.07450   0.00000  Uiso   1.00
W352   W     0.22419   0.50683   0.10108   0.00000  Uiso   1.00
S353   S     0.23035   0.51912   0.12767   0.00000  Uiso   1.00
S354   S     0.23035   0.51912   0.07450   0.00000  Uiso   1.00
W355   W     0.21802   0.54370   0.10108   0.00000  Uiso   1.00
S356   S     0.22419   0.55599   0.12767   0.00000  Uiso   1.00
S357   S     0.22419   0.55599   0.07450   0.00000  Uiso   1.00
W358   W     0.21185   0.58058   0.10108   0.00000  Uiso   1.00
S359   S     0.21802   0.59287   0.12767   0.00000  Uiso   1.00
S360   S     0.21802   0.59287   0.07450   0.00000  Uiso   1.00
W361   W     0.20568   0.61745   0.10108   0.00000  Uiso   1.00
S362   S     0.21185   0.62974   0.12767   0.00000  Uiso   1.00
S363   S     0.21185   0.62974   0.07450   0.00000  Uiso   1.00
W364   W     0.19951   0.65433   0.10108   0.00000  Uiso   1.00
S365   S     0.20568   0.66662   0.12767   0.00000  Uiso   1.00
S366   S     0.20568   0.66662   0.07450   0.00000  Uiso   1.00
W367   W     0.19335   0.69120   0.10108   0.00000  Uiso   1.00
S368   S     0.19951   0.70349   0.12767   0.00000  Uiso   1.00
S369   S     0.19951   0.70349   0.07450   0.00000  Uiso   1.00
W370   W     0.18718   0.72808   0.10108   0.00000  Uiso   1.00
S371   S     0.19335   0.74037   0.12767   0.00000  Uiso   1.00
S372   S     0.19335   0.74037   0.07450   0.00000  Uiso   1.00
W373   W     0.18101   0.76495   0.10108   0.00000  Uiso   1.00
S374   S     0.18718   0.77724   0.12767   0.00000  Uiso   1.00
S375   S     0.18718   0.77724   0.07450   0.00000  Uiso   1.00
W376   W     0.17484   0.80183   0.10108   0.00000  Uiso   1.00
S377   S     0.18101   0.81412   0.12767   0.00000  Uiso   1.00
S378   S     0.18101   0.81412   0.07450   0.00000  Uiso   1.00
W379   W     0.16868   0.83870   0.10108   0.00000  Uiso   1.00
S380   S     0.17484   0.85099   0.12767   0.00000  Uiso   1.00
S381   S     0.17484   0.85099   0.07450   0.00000  Uiso   1.00
W382   W     0.16251   0.87558   0.10108   0.00000  Uiso   1.00
S383   S     0.16868   0.88787   0.12767   0.00000  Uiso   1.00
S384   S     0.16868   0.88787   0.07450   0.00000  Uiso   1.00
W385   W     0.15634   0.91245   0.10108   0.00000  Uiso   1.00
S386   S     0.16251   0.92474   0.12767   0.00000  Uiso   1.00
S387   S     0.16251   0.92474   0.07450   0.00000  Uiso   1.00
W388   W     0.15017   0.94932   0.10108   0.00000  Uiso   1.00
S389   S     0.15634   0.96162   0.12767   0.00000  Uiso   1.00
S390   S     0.15634   0.96162   0.07450   0.00000  Uiso   1.00
W391   W     0.31670   0.02746   0.10108   0.00000  Uiso   1.00
S392   S     0.32287   0.03975   0.12767   0.00000  Uiso   1.00
S393   S     0.32287   0.03975   0.07450   0.00000  Uiso   1.00
W394   W     0.31053   0.06433   0.10108   0.00000  Uiso   1.00
S395   S     0.31670   0.07662   0.12767   0.00000  Uiso   1.00
S396   S     0.31670   0.07662   0.07450   0.00000  Uiso   1.00
W397   W     0.30436   0.10120   0.10108   0.00000  Uiso   1.00
S398   S     0.31053   0.11350   0.12767   0.00000  Uiso   1.00
S399   S     0.31053   0.11350   0.07450   0.00000  Uiso   1.00
W400   W     0.29820   0.13808   0.10108   0.00000  Uiso   1.00
S401   S     0.30436   0.15037   0.12767   0.00000  Uiso   1.00
S402   S     0.30436   0.15037   0.07450   0.00000  Uiso   1.00
W403   W     0.29203   0.17495   0.10108   0.00000  Uiso   1.00
S404   S     0.29820   0.18725   0.12767   0.00000  Uiso   1.00
S405   S     0.29820   0.18725   0.07450   0.00000  Uiso   1.00
W406   W     0.28586   0.21183   0.10108   0.00000  Uiso   1.00
S407   S     0.29203   0.22412   0.12767   0.00000  Uiso   1.00
S408   S     0.29203   0.22412   0.07450   0.00000  Uiso   1.00
W409   W     0.27969   0.24870   0.10108   0.00000  Uiso   1.00
S410   S     0.28586   0.26100   0.12767   0.00000  Uiso   1.00
S411   S     0.28586   0.26100   0.07450   0.00000  Uiso   1.00
W412   W     0.27353   0.28558   0.10108   0.00000  Uiso   1.00
S413   S     0.27969   0.29787   0.12767   0.00000  Uiso   1.00
S414   S     0.27969   0.29787   0.07450   0.00000  Uiso   1.00
W415   W     0.26736   0.32245   0.10108   0.00000  Uiso   1.00
S416   S     0.27353   0.33474   0.12767   0.00000  Uiso   1.00
S417   S     0.27353   0.33474   0.07450   0.00000  Uiso   1.00
W418   W     0.26119   0.35933   0.10108   0.00000  Uiso   1.00
S419   S     0.26736   0.37162   0.12767   0.00000  Uiso   1.00
S420   S     0.26736   0.37162   0.07450   0.00000  Uiso   1.00
W421   W     0.25502   0.39620   0.10108   0.00000  Uiso   1.00
S422   S     0.26119   0.40849   0.12767   0.00000  Uiso   1.00
S423   S     0.26119   0.40849   0.07450   0.00000  Uiso   1.00
W424   W     0.24886   0.43308   0.10108   0.00000  Uiso   1.00
S425   S     0.25502   0.44537   0.12767   0.00000  Uiso   1.00
S426   S     0.25502   0.44537   0.07450   0.00000  Uiso   1.00
W427   W     0.24269   0.46995   0.10108   0.00000  Uiso   1.00
S428   S     0.24886   0.48224   0.12767   0.00000  Uiso   1.00
S429   S     0.24886   0.48224   0.07450   0.00000  Uiso   1.00
W430   W     0.23652   0.50683   0.10108   0.00000  Uiso   1.00
S431   S     0.24269   0.51912   0.12767   0.00000  Uiso   1.00
S432   S     0.24269   0.51912   0.07450   0.00000  Uiso   1.00
W433   W     0.23035   0.54370   0.10108   0.00000  Uiso   1.00
S434   S     0.23652   0.55599   0.12767   0.00000  Uiso   1.00
S435   S     0.23652   0.55599   0.07450   0.00000  Uiso   1.00
W436   W     0.22419   0.58058   0.10108   0.00000  Uiso   1.00
S437   S     0.23035   0.59287   0.12767   0.00000  Uiso   1.00
S438   S     0.23035   0.59287   0.07450   0.00000  Uiso   1.00
W439   W     0.21802   0.61745   0.10108   0.00000  Uiso   1.00
S440   S     0.22419   0.62974   0.12767   0.00000  Uiso   1.00
S441   S     0.22419   0.62974   0.07450   0.00000  Uiso   1.00
W442   W     0.21185   0.65433   0.10108   0.00000  Uiso   1.00
S443   S     0.21802   0.66662   0.12767   0.00000  Uiso   1.00
S444   S     0.21802   0.66662   0.07450   0.00000  Uiso   1.00
W445   W     0.20568   0.69120   0.10108   0.00000  Uiso   1.00
S446   S     0.21185   0.70349   0.12767   0.00000  Uiso   1.00
S447   S     0.21185   0.70349   0.07450   0.00000  Uiso   1.00
W448   W     0.19951   0.72808   0.10108   0.00000  Uiso   1.00
S449   S     0.20568   0.74037   0.12767   0.00000  Uiso   1.00
S450   S     0.20568   0.74037   0.07450   0.00000  Uiso   1.00
W451   W     0.19335   0.76495   0.10108   0.00000  Uiso   1.00
S452   S     0.19951   0.77724   0.12767   0.00000  Uiso   1.00
S453   S     0.19951   0.77724   0.07450   0.00000  Uiso   1.00
W454   W     0.18718   0.80183   0.10108   0.00000  Uiso   1.00
S455   S     0.19335   0.81412   0.12767   0.00000  Uiso   1.00
S456   S     0.19335   0.81412   0.07450   0.00000  Uiso   1.00
W457   W     0.18101   0.83870   0.10108   0.00000  Uiso   1.00
S458   S     0.18718   0.85099   0.12767   0.00000  Uiso   1.00
S459   S     0.18718   0.85099   0.07450   0.00000  Uiso   1.00
W460   W     0.17484   0.87558   0.10108   0.00000  Uiso   1.00
S461   S     0.18101   0.88787   0.12767   0.00000  Uiso   1.00
S462   S     0.18101   0.88787   0.07450   0.00000  Uiso   1.00
W463   W     0.16868   0.91245   0.10108   0.00000  Uiso   1.00
S464   S     0.17484   0.92474   0.12767   0.00000  Uiso   1.00
S465   S     0.17484   0.92474   0.07450   0.00000  Uiso   1.00
W466   W     0.16251   0.94932   0.10108   0.00000  Uiso   1.00
S467   S     0.16868   0.96162   0.12767   0.00000  Uiso   1.00
S468   S     0.16868   0.96162   0.07450   0.00000  Uiso   1.00
W469   W     0.32903   0.02746   0.10108   0.00000  Uiso   1.00
S470   S     0.33520   0.03975   0.12767   0.00000  Uiso   1.00
S471   S     0.33520   0.03975   0.07450   0.00000  Uiso   1.00
W472   W     0.32287   0.06433   0.10108   0.00000  Uiso   1.00
S473   S     0.32903   0.07662   0.12767   0.00000  Uiso   1.00
S474   S     0.32903   0.07662   0.07450   0.00000  Uiso   1.00
W475   W     0.31670   0.10120   0.10108   0.00000  Uiso   1.00
S476   S     0.32287   0.11350   0.12767   0.00000  Uiso   1.00
S477   S     0.32287   0.11350   0.07450   0.00000  Uiso   1.00
W478   W     0.31053   0.13808   0.10108   0.00000  Uiso   1.00
S479   S     0.31670   0.15037   0.12767   0.00000  Uiso   1.00
S480   S     0.31670   0.15037   0.07450   0.00000  Uiso   1.00
W481   W     0.30436   0.17495   0.10108   0.00000  Uiso   1.00
S482   S     0.31053   0.18725   0.12767   0.00000  Uiso   1.00
S483   S     0.31053   0.18725   0.07450   0.00000  Uiso   1.00
W484   W     0.29820   0.21183   0.10108   0.00000  Uiso   1.00
S485   S     0.30436   0.22412   0.12767   0.00000  Uiso   1.00
S486   S     0.30436   0.22412   0.07450   0.00000  Uiso   1.00
W487   W     0.29203   0.24870   0.10108   0.00000  Uiso   1.00
S488   S     0.29820   0.26100   0.12767   0.00000  Uiso   1.00
S489   S     0.29820   0.26100   0.07450   0.00000  Uiso   1.00
W490   W     0.28586   0.28558   0.10108   0.00000  Uiso   1.00
S491   S     0.29203   0.29787   0.12767   0.00000  Uiso   1.00
S492   S     0.29203   0.29787   0.07450   0.00000  Uiso   1.00
W493   W     0.27969   0.32245   0.10108   0.00000  Uiso   1.00
S494   S     0.28586   0.33474   0.12767   0.00000  Uiso   1.00
S495   S     0.28586   0.33474   0.07450   0.00000  Uiso   1.00
W496   W     0.27353   0.35933   0.10108   0.00000  Uiso   1.00
S497   S     0.27969   0.37162   0.12767   0.00000  Uiso   1.00
S498   S     0.27969   0.37162   0.07450   0.00000  Uiso   1.00
W499   W     0.26736   0.39620   0.10108   0.00000  Uiso   1.00
S500   S     0.27353   0.40849   0.12767   0.00000  Uiso   1.00
S501   S     0.27353   0.40849   0.07450   0.00000  Uiso   1.00
W502   W     0.26119   0.43308   0.10108   0.00000  Uiso   1.00
S503   S     0.26736   0.44537   0.12767   0.00000  Uiso   1.00
S504   S     0.26736   0.44537   0.07450   0.00000  Uiso   1.00
W505   W     0.25502   0.46995   0.10108   0.00000  Uiso   1.00
S506   S     0.26119   0.48224   0.12767   0.00000  Uiso   1.00
S507   S     0.26119   0.48224   0.07450   0.00000  Uiso   1.00
W508   W     0.24886   0.50683   0.10108   0.00000  Uiso   1.00
S509   S     0.25502   0.51912   0.12767   0.00000  Uiso   1.00
S510   S     0.25502   0.51912   0.07450   0.00000  Uiso   1.00
W511   W     0.24269   0.54370   0.10108   0.00000  Uiso   1.00
S512   S     0.24886   0.55599   0.12767   0.00000  Uiso   1.00
S513   S     0.24886   0.55599   0.07450   0.00000  Uiso   1.00
W514   W     0.23652   0.58058   0.10108   0.00000  Uiso   1.00
S515   S     0.24269   0.59287   0.12767   0.00000  Uiso   1.00
S516   S     0.24269   0.59287   0.07450   0.00000  Uiso   1.00
W517   W     0.23035   0.61745   0.10108   0.00000  Uiso   1.00
S518   S     0.23652   0.62974   0.12767   0.00000  Uiso   1.00
S519   S     0.23652   0.62974   0.07450   0.00000  Uiso   1.00
W520   W     0.22419   0.65433   0.10108   0.00000  Uiso   1.00
S521   S     0.23035   0.66662   0.12767   0.00000  Uiso   1.00
S522   S     0.23035   0.66662   0.07450   0.00000  Uiso   1.00
W523   W     0.21802   0.69120   0.10108   0.00000  Uiso   1.00
S524   S     0.22419   0.70349   0.12767   0.00000  Uiso   1.00
S525   S     0.22419   0.70349   0.07450   0.00000  Uiso   1.00
W526   W     0.21185   0.72808   0.10108   0.00000  Uiso   1.00
S527   S     0.21802   0.74037   0.12767   0.00000  Uiso   1.00
S528   S     0.21802   0.74037   0.07450   0.00000  Uiso   1.00
W529   W     0.20568   0.76495   0.10108   0.00000  Uiso   1.00
S530   S     0.21185   0.77724   0.12767   0.00000  Uiso   1.00
S531   S     0.21185   0.77724   0.07450   0.00000  Uiso   1.00
W532   W     0.19951   0.80183   0.10108   0.00000  Uiso   1.00
S533   S     0.20568   0.81412   0.12767   0.00000  Uiso   1.00
S534   S     0.20568   0.81412   0.07450   0.00000  Uiso   1.00
W535   W     0.19335   0.83870   0.10108   0.00000  Uiso   1.00
S536   S     0.19951   0.85099   0.12767   0.00000  Uiso   1.00
S537   S     0.19951   0.85099   0.07450   0.00000  Uiso   1.00
W538   W     0.18718   0.87558   0.10108   0.00000  Uiso   1.00
S539   S     0.19335   0.88787   0.12767   0.00000  Uiso   1.00
S540   S     0.19335   0.88787   0.07450   0.00000  Uiso   1.00
W541   W     0.18101   0.91245   0.10108   0.00000  Uiso   1.00
S542   S     0.18718   0.92474   0.12767   0.00000  Uiso   1.00
S543   S     0.18718   0.92474   0.07450   0.00000  Uiso   1.00
W544   W     0.17484   0.94932   0.10108   0.00000  Uiso   1.00
S545   S     0.18101   0.96162   0.12767   0.00000  Uiso   1.00
S546   S     0.18101   0.96162   0.07450   0.00000  Uiso   1.00
W547   W     0.34137   0.02746   0.10108   0.00000  Uiso   1.00
S548   S     0.34754   0.03975   0.12767   0.00000  Uiso   1.00
S549   S     0.34754   0.03975   0.07450   0.00000  Uiso   1.00
W550   W     0.33520   0.06433   0.10108   0.00000  Uiso   1.00
S551   S     0.34137   0.07662   0.12767   0.00000  Uiso   1.00
S552   S     0.34137   0.07662   0.07450   0.00000  Uiso   1.00
W553   W     0.32903   0.10120   0.10108   0.00000  Uiso   1.00
S554   S     0.33520   0.11350   0.12767   0.00000  Uiso   1.00
S555   S     0.33520   0.11350   0.07450   0.00000  Uiso   1.00
W556   W     0.32287   0.13808   0.10108   0.00000  Uiso   1.00
S557   S     0.32903   0.15037   0.12767   0.00000  Uiso   1.00
S558   S     0.32903   0.15037   0.07450   0.00000  Uiso   1.00
W559   W     0.31670   0.17495   0.10108   0.00000  Uiso   1.00
S560   S     0.32287   0.18725   0.12767   0.00000  Uiso   1.00
S561   S     0.32287   0.18725   0.07450   0.00000  Uiso   1.00
W562   W     0.31053   0.21183   0.10108   0.00000  Uiso   1.00
S563   S     0.31670   0.22412   0.12767   0.00000  Uiso   1.00
S564   S     0.31670   0.22412   0.07450   0.00000  Uiso   1.00
W565   W     0.30436   0.24870   0.10108   0.00000  Uiso   1.00
S566   S     0.31053   0.26100   0.12767   0.00000  Uiso   1.00
S567   S     0.31053   0.26100   0.07450   0.00000  Uiso   1.00
W568   W     0.29820   0.28558   0.10108   0.00000  Uiso   1.00
S569   S     0.30436   0.29787   0.12767   0.00000  Uiso   1.00
S570   S     0.30436   0.29787   0.07450   0.00000  Uiso   1.00
W571   W     0.29203   0.32245   0.10108   0.00000  Uiso   1.00
S572   S     0.29820   0.33474   0.12767   0.00000  Uiso   1.00
S573   S     0.29820   0.33474   0.07450   0.00000  Uiso   1.00
W574   W     0.28586   0.35933   0.10108   0.00000  Uiso   1.00
S575   S     0.29203   0.37162   0.12767   0.00000  Uiso   1.00
S576   S     0.29203   0.37162   0.07450   0.00000  Uiso   1.00
W577   W     0.27969   0.39620   0.10108   0.00000  Uiso   1.00
S578   S     0.28586   0.40849   0.12767   0.00000  Uiso   1.00
S579   S     0.28586   0.40849   0.07450   0.00000  Uiso   1.00
W580   W     0.27353   0.43308   0.10108   0.00000  Uiso   1.00
S581   S     0.27969   0.44537   0.12767   0.00000  Uiso   1.00
S582   S     0.27969   0.44537   0.07450   0.00000  Uiso   1.00
W583   W     0.26736   0.46995   0.10108   0.00000  Uiso   1.00
S584   S     0.27353   0.48224   0.12767   0.00000  Uiso   1.00
S585   S     0.27353   0.48224   0.07450   0.00000  Uiso   1.00
W586   W     0.26119   0.50683   0.10108   0.00000  Uiso   1.00
S587   S     0.26736   0.51912   0.12767   0.00000  Uiso   1.00
S588   S     0.26736   0.51912   0.07450   0.00000  Uiso   1.00
W589   W     0.25502   0.54370   0.10108   0.00000  Uiso   1.00
S590   S     0.26119   0.55599   0.12767   0.00000  Uiso   1.00
S591   S     0.26119   0.55599   0.07450   0.00000  Uiso   1.00
W592   W     0.24886   0.58058   0.10108   0.00000  Uiso   1.00
S593   S     0.25502   0.59287   0.12767   0.00000  Uiso   1.00
S594   S     0.25502   0.59287   0.07450   0.00000  Uiso   1.00
W595   W     0.24269   0.61745   0.10108   0.00000  Uiso   1.00
S596   S     0.24886   0.62974   0.12767   0.00000  Uiso   1.00
S597   S     0.24886   0.62974   0.07450   0.00000  Uiso   1.00
W598   W     0.23652   0.65433   0.10108   0.00000  Uiso   1.00
S599   S     0.24269   0.66662   0.12767   0.00000  Uiso   1.00
S600   S     0.24269   0.66662   0.07450   0.00000  Uiso   1.00
W601   W     0.23035   0.69120   0.10108   0.00000  Uiso   1.00
S602   S     0.23652   0.70349   0.12767   0.00000  Uiso   1.00
S603   S     0.23652   0.70349   0.07450   0.00000  Uiso   1.00
W604   W     0.22419   0.72808   0.10108   0.00000  Uiso   1.00
S605   S     0.23035   0.74037   0.12767   0.00000  Uiso   1.00
S606   S     0.23035   0.74037   0.07450   0.00000  Uiso   1.00
W607   W     0.21802   0.76495   0.10108   0.00000  Uiso   1.00
S608   S     0.22419   0.77724   0.12767   0.00000  Uiso   1.00
S609   S     0.22419   0.77724   0.07450   0.00000  Uiso   1.00
W610   W     0.21185   0.80183   0.10108   0.00000  Uiso   1.00
S611   S     0.21802   0.81412   0.12767   0.00000  Uiso   1.00
S612   S     0.21802   0.81412   0.07450   0.00000  Uiso   1.00
W613   W     0.20568   0.83870   0.10108   0.00000  Uiso   1.00
S614   S     0.21185   0.85099   0.12767   0.00000  Uiso   1.00
S615   S     0.21185   0.85099   0.07450   0.00000  Uiso   1.00
W616   W     0.19951   0.87558   0.10108   0.00000  Uiso   1.00
S617   S     0.20568   0.88787   0.12767   0.00000  Uiso   1.00
S618   S     0.20568   0.88787   0.07450   0.00000  Uiso   1.00
W619   W     0.19335   0.91245   0.10108   0.00000  Uiso   1.00
S620   S     0.19951   0.92474   0.12767   0.00000  Uiso   1.00
S621   S     0.19951   0.92474   0.07450   0.00000  Uiso   1.00
W622   W     0.18718   0.94932   0.10108   0.00000  Uiso   1.00
S623   S     0.19335   0.96162   0.12767   0.00000  Uiso   1.00
S624   S     0.19335   0.96162   0.07450   0.00000  Uiso   1.00
W625   W     0.35370   0.02746   0.10108   0.00000  Uiso   1.00
S626   S     0.35987   0.03975   0.12767   0.00000  Uiso   1.00
S627   S     0.35987   0.03975   0.07450   0.00000  Uiso   1.00
W628   W     0.34754   0.06433   0.10108   0.00000  Uiso   1.00
S629   S     0.35370   0.07662   0.12767   0.00000  Uiso   1.00
S630   S     0.35370   0.07662   0.07450   0.00000  Uiso   1.00
W631   W     0.34137   0.10120   0.10108   0.00000  Uiso   1.00
S632   S     0.34754   0.11350   0.12767   0.00000  Uiso   1.00
S633   S     0.34754   0.11350   0.07450   0.00000  Uiso   1.00
W634   W     0.33520   0.13808   0.10108   0.00000  Uiso   1.00
S635   S     0.34137   0.15037   0.12767   0.00000  Uiso   1.00
S636   S     0.34137   0.15037   0.07450   0.00000  Uiso   1.00
W637   W     0.32903   0.17495   0.10108   0.00000  Uiso   1.00
S638   S     0.33520   0.18725   0.12767   0.00000  Uiso   1.00
S639   S     0.33520   0.18725   0.07450   0.00000  Uiso   1.00
W640   W     0.32287   0.21183   0.10108   0.00000  Uiso   1.00
S641   S     0.32903   0.22412   0.12767   0.00000  Uiso   1.00
S642   S     0.32903   0.22412   0.07450   0.00000  Uiso   1.00
W643   W     0.31670   0.24870   0.10108   0.00000  Uiso   1.00
S644   S     0.32287   0.26100   0.12767   0.00000  Uiso   1.00
S645   S     0.32287   0.26100   0.07450   0.00000  Uiso   1.00
W646   W     0.31053   0.28558   0.10108   0.00000  Uiso   1.00
S647   S     0.31670   0.29787   0.12767   0.00000  Uiso   1.00
S648   S     0.31670   0.29787   0.07450   0.00000  Uiso   1.00
W649   W     0.30436   0.32245   0.10108   0.00000  Uiso   1.00
S650   S     0.31053   0.33474   0.12767   0.00000  Uiso   1.00
S651   S     0.31053   0.33474   0.07450   0.00000  Uiso   1.00
W652   W     0.29820   0.35933   0.10108   0.00000  Uiso   1.00
S653   S     0.30436   0.37162   0.12767   0.00000  Uiso   1.00
S654   S     0.30436   0.37162   0.07450   0.00000  Uiso   1.00
W655   W     0.29203   0.39620   0.10108   0.00000  Uiso   1.00
S656   S     0.29820   0.40849   0.12767   0.00000  Uiso   1.00
S657   S     0.29820   0.40849   0.07450   0.00000  Uiso   1.00
W658   W     0.28586   0.43308   0.10108   0.00000  Uiso   1.00
S659   S     0.29203   0.44537   0.12767   0.00000  Uiso   1.00
S660   S     0.29203   0.44537   0.07450   0.00000  Uiso   1.00
W661   W     0.27969   0.46995   0.10108   0.00000  Uiso   1.00
S662   S     0.28586   0.48224   0.12767   0.00000  Uiso   1.00
S663   S     0.28586   0.48224   0.07450   0.00000  Uiso   1.00
W664   W     0.27353   0.50683   0.10108   0.00000  Uiso   1.00
S665   S     0.27969   0.51912   0.12767   0.00000  Uiso   1.00
S666   S     0.27969   0.51912   0.07450   0.00000  Uiso   1.00
W667   W     0.26736   0.54370   0.10108   0.00000  Uiso   1.00
S668   S     0.27353   0.55599   0.12767   0.00000  Uiso   1.00
S669   S     0.27353   0.55599   0.07450   0.00000  Uiso   1.00
W670   W     0.26119   0.58058   0.10108   0.00000  Uiso   1.00
S671   S     0.26736   0.59287   0.12767   0.00000  Uiso   1.00
S672   S     0.26736   0.59287   0.07450   0.00000  Uiso   1.00
W673   W     0.25502   0.61745   0.10108   0.00000  Uiso   1.00
S674   S     0.26119   0.62974   0.12767   0.00000  Uiso   1.00
S675   S     0.26119   0.62974   0.07450   0.00000  Uiso   1.00
W676   W     0.24886   0.65433   0.10108   0.00000  Uiso   1.00
S677   S     0.25502   0.66662   0.12767   0.00000  Uiso   1.00
S678   S     0.25502   0.66662   0.07450   0.00000  Uiso   1.00
W679   W     0.24269   0.69120   0.10108   0.00000  Uiso   1.00
S680   S     0.24886   0.70349   0.12767   0.00000  Uiso   1.00
S681   S     0.24886   0.70349   0.07450   0.00000  Uiso   1.00
W682   W     0.23652   0.72808   0.10108   0.00000  Uiso   1.00
S683   S     0.24269   0.74037   0.12767   0.00000  Uiso   1.00
S684   S     0.24269   0.74037   0.07450   0.00000  Uiso   1.00
W685   W     0.23035   0.76495   0.10108   0.00000  Uiso   1.00
S686   S     0.23652   0.77724   0.12767   0.00000  Uiso   1.00
S687   S     0.23652   0.77724   0.07450   0.00000  Uiso   1.00
W688   W     0.22419   0.80183   0.10108   0.00000  Uiso   1.00
S689   S     0.23035   0.81412   0.12767   0.00000  Uiso   1.00
S690   S     0.23035   0.81412   0.07450   0.00000  Uiso   1.00
W691   W     0.21802   0.83870   0.10108   0.00000  Uiso   1.00
S692   S     0.22419   0.85099   0.12767   0.00000  Uiso   1.00
S693   S     0.22419   0.85099   0.07450   0.00000  Uiso   1.00
W694   W     0.21185   0.87558   0.10108   0.00000  Uiso   1.00
S695   S     0.21802   0.88787   0.12767   0.00000  Uiso   1.00
S696   S     0.21802   0.88787   0.07450   0.00000  Uiso   1.00
W697   W     0.20568   0.91245   0.10108   0.00000  Uiso   1.00
S698   S     0.21185   0.92474   0.12767   0.00000  Uiso   1.00
S699   S     0.21185   0.92474   0.07450   0.00000  Uiso   1.00
W700   W     0.19951   0.94932   0.10108   0.00000  Uiso   1.00
S701   S     0.20568   0.96162   0.12767   0.00000  Uiso   1.00
S702   S     0.20568   0.96162   0.07450   0.00000  Uiso   1.00
W703   W     0.36604   0.02746   0.10108   0.00000  Uiso   1.00
S704   S     0.37221   0.03975   0.12767   0.00000  Uiso   1.00
S705   S     0.37221   0.03975   0.07450   0.00000  Uiso   1.00
W706   W     0.35987   0.06433   0.10108   0.00000  Uiso   1.00
S707   S     0.36604   0.07662   0.12767   0.00000  Uiso   1.00
S708   S     0.36604   0.07662   0.07450   0.00000  Uiso   1.00
W709   W     0.35370   0.10120   0.10108   0.00000  Uiso   1.00
S710   S     0.35987   0.11350   0.12767   0.00000  Uiso   1.00
S711   S     0.35987   0.11350   0.07450   0.00000  Uiso   1.00
W712   W     0.34754   0.13808   0.10108   0.00000  Uiso   1.00
S713   S     0.35370   0.15037   0.12767   0.00000  Uiso   1.00
S714   S     0.35370   0.15037   0.07450   0.00000  Uiso   1.00
W715   W     0.34137   0.17495   0.10108   0.00000  Uiso   1.00
S716   S     0.34754   0.18725   0.12767   0.00000  Uiso   1.00
S717   S     0.34754   0.18725   0.07450   0.00000  Uiso   1.00
W718   W     0.33520   0.21183   0.10108   0.00000  Uiso   1.00
S719   S     0.34137   0.22412   0.12767   0.00000  Uiso   1.00
S720   S     0.34137   0.22412   0.07450   0.00000  Uiso   1.00
W721   W     0.32903   0.24870   0.10108   0.00000  Uiso   1.00
S722   S     0.33520   0.26100   0.12767   0.00000  Uiso   1.00
S723   S     0.33520   0.26100   0.07450   0.00000  Uiso   1.00
W724   W     0.32287   0.28558   0.10108   0.00000  Uiso   1.00
S725   S     0.32903   0.29787   0.12767   0.00000  Uiso   1.00
S726   S     0.32903   0.29787   0.07450   0.00000  Uiso   1.00
W727   W     0.31670   0.32245   0.10108   0.00000  Uiso   1.00
S728   S     0.32287   0.33474   0.12767   0.00000  Uiso   1.00
S729   S     0.32287   0.33474   0.07450   0.00000  Uiso   1.00
W730   W     0.31053   0.35933   0.10108   0.00000  Uiso   1.00
S731   S     0.31670   0.37162   0.12767   0.00000  Uiso   1.00
S732   S     0.31670   0.37162   0.07450   0.00000  Uiso   1.00
W733   W     0.30436   0.39620   0.10108   0.00000  Uiso   1.00
S734   S     0.31053   0.40849   0.12767   0.00000  Uiso   1.00
S735   S     0.31053   0.40849   0.07450   0.00000  Uiso   1.00
W736   W     0.29820   0.43308   0.10108   0.00000  Uiso   1.00
S737   S     0.30436   0.44537   0.12767   0.00000  Uiso   1.00
S738   S     0.30436   0.44537   0.07450   0.00000  Uiso   1.00
W739   W     0.29203   0.46995   0.10108   0.00000  Uiso   1.00
S740   S     0.29820   0.48224   0.12767   0.00000  Uiso   1.00
S741   S     0.29820   0.48224   0.07450   0.00000  Uiso   1.00
W742   W     0.28586   0.50683   0.10108   0.00000  Uiso   1.00
S743   S     0.29203   0.51912   0.12767   0.00000  Uiso   1.00
S744   S     0.29203   0.51912   0.07450   0.00000  Uiso   1.00
W745   W     0.27969   0.54370   0.10108   0.00000  Uiso   1.00
S746   S     0.28586   0.55599   0.12767   0.00000  Uiso   1.00
S747   S     0.28586   0.55599   0.07450   0.00000  Uiso   1.00
W748   W     0.27353   0.58058   0.10108   0.00000  Uiso   1.00
S749   S     0.27969   0.59287   0.12767   0.00000  Uiso   1.00
S750   S     0.27969   0.59287   0.07450   0.00000  Uiso   1.00
W751   W     0.26736   0.61745   0.10108   0.00000  Uiso   1.00
S752   S     0.27353   0.62974   0.12767   0.00000  Uiso   1.00
S753   S     0.27353   0.62974   0.07450   0.00000  Uiso   1.00
W754   W     0.26119   0.65433   0.10108   0.00000  Uiso   1.00
S755   S     0.26736   0.66662   0.12767   0.00000  Uiso   1.00
S756   S     0.26736   0.66662   0.07450   0.00000  Uiso   1.00
W757   W     0.25502   0.69120   0.10108   0.00000  Uiso   1.00
S758   S     0.26119   0.70349   0.12767   0.00000  Uiso   1.00
S759   S     0.26119   0.70349   0.07450   0.00000  Uiso   1.00
W760   W     0.24886   0.72808   0.10108   0.00000  Uiso   1.00
S761   S     0.25502   0.74037   0.12767   0.00000  Uiso   1.00
S762   S     0.25502   0.74037   0.07450   0.00000  Uiso   1.00
W763   W     0.24269   0.76495   0.10108   0.00000  Uiso   1.00
S764   S     0.24886   0.77724   0.12767   0.00000  Uiso   1.00
S765   S     0.24886   0.77724   0.07450   0.00000  Uiso   1.00
W766   W     0.23652   0.80183   0.10108   0.00000  Uiso   1.00
S767   S     0.24269   0.81412   0.12767   0.00000  Uiso   1.00
S768   S     0.24269   0.81412   0.07450   0.00000  Uiso   1.00
W769   W     0.23035   0.83870   0.10108   0.00000  Uiso   1.00
S770   S     0.23652   0.85099   0.12767   0.00000  Uiso   1.00
S771   S     0.23652   0.85099   0.07450   0.00000  Uiso   1.00
W772   W     0.22419   0.87558   0.10108   0.00000  Uiso   1.00
S773   S     0.23035   0.88787   0.12767   0.00000  Uiso   1.00
S774   S     0.23035   0.88787   0.07450   0.00000  Uiso   1.00
W775   W     0.21802   0.91245   0.10108   0.00000  Uiso   1.00
S776   S     0.22419   0.92474   0.12767   0.00000  Uiso   1.00
S777   S     0.22419   0.92474   0.07450   0.00000  Uiso   1.00
W778   W     0.21185   0.94932   0.10108   0.00000  Uiso   1.00
S779   S     0.21802   0.96162   0.12767   0.00000  Uiso   1.00
S780   S     0.21802   0.96162   0.07450   0.00000  Uiso   1.00
W781   W     0.37838   0.02746   0.10108   0.00000  Uiso   1.00
S782   S     0.38454   0.03975   0.12767   0.00000  Uiso   1.00
S783   S     0.38454   0.03975   0.07450   0.00000  Uiso   1.00
W784   W     0.37221   0.06433   0.10108   0.00000  Uiso   1.00
S785   S     0.37838   0.07662   0.12767   0.00000  Uiso   1.00
S786   S     0.37838   0.07662   0.07450   0.00000  Uiso   1.00
W787   W     0.36604   0.10120   0.10108   0.00000  Uiso   1.00
S788   S     0.37221   0.11350   0.12767   0.00000  Uiso   1.00
S789   S     0.37221   0.11350   0.07450   0.00000  Uiso   1.00
W790   W     0.35987   0.13808   0.10108   0.00000  Uiso   1.00
S791   S     0.36604   0.15037   0.12767   0.00000  Uiso   1.00
S792   S     0.36604   0.15037   0.07450   0.00000  Uiso   1.00
W793   W     0.35370   0.17495   0.10108   0.00000  Uiso   1.00
S794   S     0.35987   0.18725   0.12767   0.00000  Uiso   1.00
S795   S     0.35987   0.18725   0.07450   0.00000  Uiso   1.00
W796   W     0.34754   0.21183   0.10108   0.00000  Uiso   1.00
S797   S     0.35370   0.22412   0.12767   0.00000  Uiso   1.00
S798   S     0.35370   0.22412   0.07450   0.00000  Uiso   1.00
W799   W     0.34137   0.24870   0.10108   0.00000  Uiso   1.00
S800   S     0.34754   0.26100   0.12767   0.00000  Uiso   1.00
S801   S     0.34754   0.26100   0.07450   0.00000  Uiso   1.00
W802   W     0.33520   0.28558   0.10108   0.00000  Uiso   1.00
S803   S     0.34137   0.29787   0.12767   0.00000  Uiso   1.00
S804   S     0.34137   0.29787   0.07450   0.00000  Uiso   1.00
W805   W     0.32903   0.32245   0.10108   0.00000  Uiso   1.00
S806   S     0.33520   0.33474   0.12767   0.00000  Uiso   1.00
S807   S     0.33520   0.33474   0.07450   0.00000  Uiso   1.00
W808   W     0.32287   0.35933   0.10108   0.00000  Uiso   1.00
S809   S     0.32903   0.37162   0.12767   0.00000  Uiso   1.00
S810   S     0.32903   0.37162   0.07450   0.00000  Uiso   1.00
W811   W     0.31670   0.39620   0.10108   0.00000  Uiso   1.00
S812   S     0.32287   0.40849   0.12767   0.00000  Uiso   1.00
S813   S     0.32287   0.40849   0.07450   0.00000  Uiso   1.00
W814   W     0.31053   0.43308   0.10108   0.00000  Uiso   1.00
S815   S     0.31670   0.44537   0.12767   0.00000  Uiso   1.00
S816   S     0.31670   0.44537   0.07450   0.00000  Uiso   1.00
W817   W     0.30436   0.46995   0.10108   0.00000  Uiso   1.00
S818   S     0.31053   0.48224   0.12767   0.00000  Uiso   1.00
S819   S     0.31053   0.48224   0.07450   0.00000  Uiso   1.00
W820   W     0.29820   0.50683   0.10108   0.00000  Uiso   1.00
S821   S     0.30436   0.51912   0.12767   0.00000  Uiso   1.00
S822   S     0.30436   0.51912   0.07450   0.00000  Uiso   1.00
W823   W     0.29203   0.54370   0.10108   0.00000  Uiso   1.00
S824   S     0.29820   0.55599   0.12767   0.00000  Uiso   1.00
S825   S     0.29820   0.55599   0.07450   0.00000  Uiso   1.00
W826   W     0.28586   0.58058   0.10108   0.00000  Uiso   1.00
S827   S     0.29203   0.59287   0.12767   0.00000  Uiso   1.00
S828   S     0.29203   0.59287   0.07450   0.00000  Uiso   1.00
W829   W     0.27969   0.61745   0.10108   0.00000  Uiso   1.00
S830   S     0.28586   0.62974   0.12767   0.00000  Uiso   1.00
S831   S     0.28586   0.62974   0.07450   0.00000  Uiso   1.00
W832   W     0.27353   0.65433   0.10108   0.00000  Uiso   1.00
S833   S     0.27969   0.66662   0.12767   0.00000  Uiso   1.00
S834   S     0.27969   0.66662   0.07450   0.00000  Uiso   1.00
W835   W     0.26736   0.69120   0.10108   0.00000  Uiso   1.00
S836   S     0.27353   0.70349   0.12767   0.00000  Uiso   1.00
S837   S     0.27353   0.70349   0.07450   0.00000  Uiso   1.00
W838   W     0.26119   0.72808   0.10108   0.00000  Uiso   1.00
S839   S     0.26736   0.74037   0.12767   0.00000  Uiso   1.00
S840   S     0.26736   0.74037   0.07450   0.00000  Uiso   1.00
W841   W     0.25502   0.76495   0.10108   0.00000  Uiso   1.00
S842   S     0.26119   0.77724   0.12767   0.00000  Uiso   1.00
S843   S     0.26119   0.77724   0.07450   0.00000  Uiso   1.00
W844   W     0.24886   0.80183   0.10108   0.00000  Uiso   1.00
S845   S     0.25502   0.81412   0.12767   0.00000  Uiso   1.00
S846   S     0.25502   0.81412   0.07450   0.00000  Uiso   1.00
W847   W     0.24269   0.83870   0.10108   0.00000  Uiso   1.00
S848   S     0.24886   0.85099   0.12767   0.00000  Uiso   1.00
S849   S     0.24886   0.85099   0.07450   0.00000  Uiso   1.00
W850   W     0.23652   0.87558   0.10108   0.00000  Uiso   1.00
S851   S     0.24269   0.88787   0.12767   0.00000  Uiso   1.00
S852   S     0.24269   0.88787   0.07450   0.00000  Uiso   1.00
W853   W     0.23035   0.91245   0.10108   0.00000  Uiso   1.00
S854   S     0.23652   0.92474   0.12767   0.00000  Uiso   1.00
S855   S     0.23652   0.92474   0.07450   0.00000  Uiso   1.00
W856   W     0.22419   0.94932   0.10108   0.00000  Uiso   1.00
S857   S     0.23035   0.96162   0.12767   0.00000  Uiso   1.00
S858   S     0.23035   0.96162   0.07450   0.00000  Uiso   1.00
W859   W     0.39071   0.02746   0.10108   0.00000  Uiso   1.00
S860   S     0.39688   0.03975   0.12767   0.00000  Uiso   1.00
S861   S     0.39688   0.03975   0.07450   0.00000  Uiso   1.00
W862   W     0.38454   0.06433   0.10108   0.00000  Uiso   1.00
S863   S     0.39071   0.07662   0.12767   0.00000  Uiso   1.00
S864   S     0.39071   0.07662   0.07450   0.00000  Uiso   1.00
W865   W     0.37838   0.10120   0.10108   0.00000  Uiso   1.00
S866   S     0.38454   0.11350   0.12767   0.00000  Uiso   1.00
S867   S     0.38454   0.11350   0.07450   0.00000  Uiso   1.00
W868   W     0.37221   0.13808   0.10108   0.00000  Uiso   1.00
S869   S     0.37838   0.15037   0.12767   0.00000  Uiso   1.00
S870   S     0.37838   0.15037   0.07450   0.00000  Uiso   1.00
W871   W     0.36604   0.17495   0.10108   0.00000  Uiso   1.00
S872   S     0.37221   0.18725   0.12767   0.00000  Uiso   1.00
S873   S     0.37221   0.18725   0.07450   0.00000  Uiso   1.00
W874   W     0.35987   0.21183   0.10108   0.00000  Uiso   1.00
S875   S     0.36604   0.22412   0.12767   0.00000  Uiso   1.00
S876   S     0.36604   0.22412   0.07450   0.00000  Uiso   1.00
W877   W     0.35370   0.24870   0.10108   0.00000  Uiso   1.00
S878   S     0.35987   0.26100   0.12767   0.00000  Uiso   1.00
S879   S     0.35987   0.26100   0.07450   0.00000  Uiso   1.00
W880   W     0.34754   0.28558   0.10108   0.00000  Uiso   1.00
S881   S     0.35370   0.29787   0.12767   0.00000  Uiso   1.00
S882   S     0.35370   0.29787   0.07450   0.00000  Uiso   1.00
W883   W     0.34137   0.32245   0.10108   0.00000  Uiso   1.00
S884   S     0.34754   0.33474   0.12767   0.00000  Uiso   1.00
S885   S     0.34754   0.33474   0.07450   0.00000  Uiso   1.00
W886   W     0.33520   0.35933   0.10108   0.00000  Uiso   1.00
S887   S     0.34137   0.37162   0.12767   0.00000  Uiso   1.00
S888   S     0.34137   0.37162   0.07450   0.00000  Uiso   1.00
W889   W     0.32903   0.39620   0.10108   0.00000  Uiso   1.00
S890   S     0.33520   0.40849   0.12767   0.00000  Uiso   1.00
S891   S     0.33520   0.40849   0.07450   0.00000  Uiso   1.00
W892   W     0.32287   0.43308   0.10108   0.00000  Uiso   1.00
S893   S     0.32903   0.44537   0.12767   0.00000  Uiso   1.00
S894   S     0.32903   0.44537   0.07450   0.00000  Uiso   1.00
W895   W     0.31670   0.46995   0.10108   0.00000  Uiso   1.00
S896   S     0.32287   0.48224   0.12767   0.00000  Uiso   1.00
S897   S     0.32287   0.48224   0.07450   0.00000  Uiso   1.00
W898   W     0.31053   0.50683   0.10108   0.00000  Uiso   1.00
S899   S     0.31670   0.51912   0.12767   0.00000  Uiso   1.00
S900   S     0.31670   0.51912   0.07450   0.00000  Uiso   1.00
W901   W     0.30436   0.54370   0.10108   0.00000  Uiso   1.00
S902   S     0.31053   0.55599   0.12767   0.00000  Uiso   1.00
S903   S     0.31053   0.55599   0.07450   0.00000  Uiso   1.00
W904   W     0.29820   0.58058   0.10108   0.00000  Uiso   1.00
S905   S     0.30436   0.59287   0.12767   0.00000  Uiso   1.00
S906   S     0.30436   0.59287   0.07450   0.00000  Uiso   1.00
W907   W     0.29203   0.61745   0.10108   0.00000  Uiso   1.00
S908   S     0.29820   0.62974   0.12767   0.00000  Uiso   1.00
S909   S     0.29820   0.62974   0.07450   0.00000  Uiso   1.00
W910   W     0.28586   0.65433   0.10108   0.00000  Uiso   1.00
S911   S     0.29203   0.66662   0.12767   0.00000  Uiso   1.00
S912   S     0.29203   0.66662   0.07450   0.00000  Uiso   1.00
W913   W     0.27969   0.69120   0.10108   0.00000  Uiso   1.00
S914   S     0.28586   0.70349   0.12767   0.00000  Uiso   1.00
S915   S     0.28586   0.70349   0.07450   0.00000  Uiso   1.00
W916   W     0.27353   0.72808   0.10108   0.00000  Uiso   1.00
S917   S     0.27969   0.74037   0.12767   0.00000  Uiso   1.00
S918   S     0.27969   0.74037   0.07450   0.00000  Uiso   1.00
W919   W     0.26736   0.76495   0.10108   0.00000  Uiso   1.00
S920   S     0.27353   0.77724   0.12767   0.00000  Uiso   1.00
S921   S     0.27353   0.77724   0.07450   0.00000  Uiso   1.00
W922   W     0.26119   0.80183   0.10108   0.00000  Uiso   1.00
S923   S     0.26736   0.81412   0.12767   0.00000  Uiso   1.00
S924   S     0.26736   0.81412   0.07450   0.00000  Uiso   1.00
W925   W     0.25502   0.83870   0.10108   0.00000  Uiso   1.00
S926   S     0.26119   0.85099   0.12767   0.00000  Uiso   1.00
S927   S     0.26119   0.85099   0.07450   0.00000  Uiso   1.00
W928   W     0.24886   0.87558   0.10108   0.00000  Uiso   1.00
S929   S     0.25502   0.88787   0.12767   0.00000  Uiso   1.00
S930   S     0.25502   0.88787   0.07450   0.00000  Uiso   1.00
W931   W     0.24269   0.91245   0.10108   0.00000  Uiso   1.00
S932   S     0.24886   0.92474   0.12767   0.00000  Uiso   1.00
S933   S     0.24886   0.92474   0.07450   0.00000  Uiso   1.00
W934   W     0.23652   0.94932   0.10108   0.00000  Uiso   1.00
S935   S     0.24269   0.96162   0.12767   0.00000  Uiso   1.00
S936   S     0.24269   0.96162   0.07450   0.00000  Uiso   1.00
W937   W     0.40305   0.02746   0.10108   0.00000  Uiso   1.00
S938   S     0.40921   0.03975   0.12767   0.00000  Uiso   1.00
S939   S     0.40921   0.03975   0.07450   0.00000  Uiso   1.00
W940   W     0.39688   0.06433   0.10108   0.00000  Uiso   1.00
S941   S     0.40305   0.07662   0.12767   0.00000  Uiso   1.00
S942   S     0.40305   0.07662   0.07450   0.00000  Uiso   1.00
W943   W     0.39071   0.10120   0.10108   0.00000  Uiso   1.00
S944   S     0.39688   0.11350   0.12767   0.00000  Uiso   1.00
S945   S     0.39688   0.11350   0.07450   0.00000  Uiso   1.00
W946   W     0.38454   0.13808   0.10108   0.00000  Uiso   1.00
S947   S     0.39071   0.15037   0.12767   0.00000  Uiso   1.00
S948   S     0.39071   0.15037   0.07450   0.00000  Uiso   1.00
W949   W     0.37838   0.17495   0.10108   0.00000  Uiso   1.00
S950   S     0.38454   0.18725   0.12767   0.00000  Uiso   1.00
S951   S     0.38454   0.18725   0.07450   0.00000  Uiso   1.00
W952   W     0.37221   0.21183   0.10108   0.00000  Uiso   1.00
S953   S     0.37838   0.22412   0.12767   0.00000  Uiso   1.00
S954   S     0.37838   0.22412   0.07450   0.00000  Uiso   1.00
W955   W     0.36604   0.24870   0.10108   0.00000  Uiso   1.00
S956   S     0.37221   0.26100   0.12767   0.00000  Uiso   1.00
S957   S     0.37221   0.26100   0.07450   0.00000  Uiso   1.00
W958   W     0.35987   0.28558   0.10108   0.00000  Uiso   1.00
S959   S     0.36604   0.29787   0.12767   0.00000  Uiso   1.00
S960   S     0.36604   0.29787   0.07450   0.00000  Uiso   1.00
W961   W     0.35370   0.32245   0.10108   0.00000  Uiso   1.00
S962   S     0.35987   0.33474   0.12767   0.00000  Uiso   1.00
S963   S     0.35987   0.33474   0.07450   0.00000  Uiso   1.00
W964   W     0.34754   0.35933   0.10108   0.00000  Uiso   1.00
S965   S     0.35370   0.37162   0.12767   0.00000  Uiso   1.00
S966   S     0.35370   0.37162   0.07450   0.00000  Uiso   1.00
W967   W     0.34137   0.39620   0.10108   0.00000  Uiso   1.00
S968   S     0.34754   0.40849   0.12767   0.00000  Uiso   1.00
S969   S     0.34754   0.40849   0.07450   0.00000  Uiso   1.00
W970   W     0.33520   0.43308   0.10108   0.00000  Uiso   1.00
S971   S     0.34137   0.44537   0.12767   0.00000  Uiso   1.00
S972   S     0.34137   0.44537   0.07450   0.00000  Uiso   1.00
W973   W     0.32903   0.46995   0.10108   0.00000  Uiso   1.00
S974   S     0.33520   0.48224   0.12767   0.00000  Uiso   1.00
S975   S     0.33520   0.48224   0.07450   0.00000  Uiso   1.00
W976   W     0.32287   0.50683   0.10108   0.00000  Uiso   1.00
S977   S     0.32903   0.51912   0.12767   0.00000  Uiso   1.00
S978   S     0.32903   0.51912   0.07450   0.00000  Uiso   1.00
W979   W     0.31670   0.54370   0.10108   0.00000  Uiso   1.00
S980   S     0.32287   0.55599   0.12767   0.00000  Uiso   1.00
S981   S     0.32287   0.55599   0.07450   0.00000  Uiso   1.00
W982   W     0.31053   0.58058   0.10108   0.00000  Uiso   1.00
S983   S     0.31670   0.59287   0.12767   0.00000  Uiso   1.00
S984   S     0.31670   0.59287   0.07450   0.00000  Uiso   1.00
W985   W     0.30436   0.61745   0.10108   0.00000  Uiso   1.00
S986   S     0.31053   0.62974   0.12767   0.00000  Uiso   1.00
S987   S     0.31053   0.62974   0.07450   0.00000  Uiso   1.00
W988   W     0.29820   0.65433   0.10108   0.00000  Uiso   1.00
S989   S     0.30436   0.66662   0.12767   0.00000  Uiso   1.00
S990   S     0.30436   0.66662   0.07450   0.00000  Uiso   1.00
W991   W     0.29203   0.69120   0.10108   0.00000  Uiso   1.00
S992   S     0.29820   0.70349   0.12767   0.00000  Uiso   1.00
S993   S     0.29820   0.70349   0.07450   0.00000  Uiso   1.00
W994   W     0.28586   0.72808   0.10108   0.00000  Uiso   1.00
S995   S     0.29203   0.74037   0.12767   0.00000  Uiso   1.00
S996   S     0.29203   0.74037   0.07450   0.00000  Uiso   1.00
W997   W     0.27969   0.76495   0.10108   0.00000  Uiso   1.00
S998   S     0.28586   0.77724   0.12767   0.00000  Uiso   1.00
S999   S     0.28586   0.77724   0.07450   0.00000  Uiso   1.00
W1000  W     0.27353   0.80183   0.10108   0.00000  Uiso   1.00
S1001  S     0.27969   0.81412   0.12767   0.00000  Uiso   1.00
S1002  S     0.27969   0.81412   0.07450   0.00000  Uiso   1.00
W1003  W     0.26736   0.83870   0.10108   0.00000  Uiso   1.00
S1004  S     0.27353   0.85099   0.12767   0.00000  Uiso   1.00
S1005  S     0.27353   0.85099   0.07450   0.00000  Uiso   1.00
W1006  W     0.26119   0.87558   0.10108   0.00000  Uiso   1.00
S1007  S     0.26736   0.88787   0.12767   0.00000  Uiso   1.00
S1008  S     0.26736   0.88787   0.07450   0.00000  Uiso   1.00
W1009  W     0.25502   0.91245   0.10108   0.00000  Uiso   1.00
S1010  S     0.26119   0.92474   0.12767   0.00000  Uiso   1.00
S1011  S     0.26119   0.92474   0.07450   0.00000  Uiso   1.00
W1012  W     0.24886   0.94932   0.10108   0.00000  Uiso   1.00
S1013  S     0.25502   0.96162   0.12767   0.00000  Uiso   1.00
S1014  S     0.25502   0.96162   0.07450   0.00000  Uiso   1.00
W1015  W     0.41538   0.02746   0.10108   0.00000  Uiso   1.00
S1016  S     0.42155   0.03975   0.12767   0.00000  Uiso   1.00
S1017  S     0.42155   0.03975   0.07450   0.00000  Uiso   1.00
W1018  W     0.40921   0.06433   0.10108   0.00000  Uiso   1.00
S1019  S     0.41538   0.07662   0.12767   0.00000  Uiso   1.00
S1020  S     0.41538   0.07662   0.07450   0.00000  Uiso   1.00
W1021  W     0.40305   0.10120   0.10108   0.00000  Uiso   1.00
S1022  S     0.40921   0.11350   0.12767   0.00000  Uiso   1.00
S1023  S     0.40921   0.11350   0.07450   0.00000  Uiso   1.00
W1024  W     0.39688   0.13808   0.10108   0.00000  Uiso   1.00
S1025  S     0.40305   0.15037   0.12767   0.00000  Uiso   1.00
S1026  S     0.40305   0.15037   0.07450   0.00000  Uiso   1.00
W1027  W     0.39071   0.17495   0.10108   0.00000  Uiso   1.00
S1028  S     0.39688   0.18725   0.12767   0.00000  Uiso   1.00
S1029  S     0.39688   0.18725   0.07450   0.00000  Uiso   1.00
W1030  W     0.38454   0.21183   0.10108   0.00000  Uiso   1.00
S1031  S     0.39071   0.22412   0.12767   0.00000  Uiso   1.00
S1032  S     0.39071   0.22412   0.07450   0.00000  Uiso   1.00
W1033  W     0.37838   0.24870   0.10108   0.00000  Uiso   1.00
S1034  S     0.38454   0.26100   0.12767   0.00000  Uiso   1.00
S1035  S     0.38454   0.26100   0.07450   0.00000  Uiso   1.00
W1036  W     0.37221   0.28558   0.10108   0.00000  Uiso   1.00
S1037  S     0.37838   0.29787   0.12767   0.00000  Uiso   1.00
S1038  S     0.37838   0.29787   0.07450   0.00000  Uiso   1.00
W1039  W     0.36604   0.32245   0.10108   0.00000  Uiso   1.00
S1040  S     0.37221   0.33474   0.12767   0.00000  Uiso   1.00
S1041  S     0.37221   0.33474   0.07450   0.00000  Uiso   1.00
W1042  W     0.35987   0.35933   0.10108   0.00000  Uiso   1.00
S1043  S     0.36604   0.37162   0.12767   0.00000  Uiso   1.00
S1044  S     0.36604   0.37162   0.07450   0.00000  Uiso   1.00
W1045  W     0.35370   0.39620   0.10108   0.00000  Uiso   1.00
S1046  S     0.35987   0.40849   0.12767   0.00000  Uiso   1.00
S1047  S     0.35987   0.40849   0.07450   0.00000  Uiso   1.00
W1048  W     0.34754   0.43308   0.10108   0.00000  Uiso   1.00
S1049  S     0.35370   0.44537   0.12767   0.00000  Uiso   1.00
S1050  S     0.35370   0.44537   0.07450   0.00000  Uiso   1.00
W1051  W     0.34137   0.46995   0.10108   0.00000  Uiso   1.00
S1052  S     0.34754   0.48224   0.12767   0.00000  Uiso   1.00
S1053  S     0.34754   0.48224   0.07450   0.00000  Uiso   1.00
W1054  W     0.33520   0.50683   0.10108   0.00000  Uiso   1.00
S1055  S     0.34137   0.51912   0.12767   0.00000  Uiso   1.00
S1056  S     0.34137   0.51912   0.07450   0.00000  Uiso   1.00
W1057  W     0.32903   0.54370   0.10108   0.00000  Uiso   1.00
S1058  S     0.33520   0.55599   0.12767   0.00000  Uiso   1.00
S1059  S     0.33520   0.55599   0.07450   0.00000  Uiso   1.00
W1060  W     0.32287   0.58058   0.10108   0.00000  Uiso   1.00
S1061  S     0.32903   0.59287   0.12767   0.00000  Uiso   1.00
S1062  S     0.32903   0.59287   0.07450   0.00000  Uiso   1.00
W1063  W     0.31670   0.61745   0.10108   0.00000  Uiso   1.00
S1064  S     0.32287   0.62974   0.12767   0.00000  Uiso   1.00
S1065  S     0.32287   0.62974   0.07450   0.00000  Uiso   1.00
W1066  W     0.31053   0.65433   0.10108   0.00000  Uiso   1.00
S1067  S     0.31670   0.66662   0.12767   0.00000  Uiso   1.00
S1068  S     0.31670   0.66662   0.07450   0.00000  Uiso   1.00
W1069  W     0.30436   0.69120   0.10108   0.00000  Uiso   1.00
S1070  S     0.31053   0.70349   0.12767   0.00000  Uiso   1.00
S1071  S     0.31053   0.70349   0.07450   0.00000  Uiso   1.00
W1072  W     0.29820   0.72808   0.10108   0.00000  Uiso   1.00
S1073  S     0.30436   0.74037   0.12767   0.00000  Uiso   1.00
S1074  S     0.30436   0.74037   0.07450   0.00000  Uiso   1.00
W1075  W     0.29203   0.76495   0.10108   0.00000  Uiso   1.00
S1076  S     0.29820   0.77724   0.12767   0.00000  Uiso   1.00
S1077  S     0.29820   0.77724   0.07450   0.00000  Uiso   1.00
W1078  W     0.28586   0.80183   0.10108   0.00000  Uiso   1.00
S1079  S     0.29203   0.81412   0.12767   0.00000  Uiso   1.00
S1080  S     0.29203   0.81412   0.07450   0.00000  Uiso   1.00
W1081  W     0.27969   0.83870   0.10108   0.00000  Uiso   1.00
S1082  S     0.28586   0.85099   0.12767   0.00000  Uiso   1.00
S1083  S     0.28586   0.85099   0.07450   0.00000  Uiso   1.00
W1084  W     0.27353   0.87558   0.10108   0.00000  Uiso   1.00
S1085  S     0.27969   0.88787   0.12767   0.00000  Uiso   1.00
S1086  S     0.27969   0.88787   0.07450   0.00000  Uiso   1.00
W1087  W     0.26736   0.91245   0.10108   0.00000  Uiso   1.00
S1088  S     0.27353   0.92474   0.12767   0.00000  Uiso   1.00
S1089  S     0.27353   0.92474   0.07450   0.00000  Uiso   1.00
W1090  W     0.26119   0.94932   0.10108   0.00000  Uiso   1.00
S1091  S     0.26736   0.96162   0.12767   0.00000  Uiso   1.00
S1092  S     0.26736   0.96162   0.07450   0.00000  Uiso   1.00
W1093  W     0.42772   0.02746   0.10108   0.00000  Uiso   1.00
S1094  S     0.43388   0.03975   0.12767   0.00000  Uiso   1.00
S1095  S     0.43388   0.03975   0.07450   0.00000  Uiso   1.00
W1096  W     0.42155   0.06433   0.10108   0.00000  Uiso   1.00
S1097  S     0.42772   0.07662   0.12767   0.00000  Uiso   1.00
S1098  S     0.42772   0.07662   0.07450   0.00000  Uiso   1.00
W1099  W     0.41538   0.10120   0.10108   0.00000  Uiso   1.00
S1100  S     0.42155   0.11350   0.12767   0.00000  Uiso   1.00
S1101  S     0.42155   0.11350   0.07450   0.00000  Uiso   1.00
W1102  W     0.40921   0.13808   0.10108   0.00000  Uiso   1.00
S1103  S     0.41538   0.15037   0.12767   0.00000  Uiso   1.00
S1104  S     0.41538   0.15037   0.07450   0.00000  Uiso   1.00
W1105  W     0.40305   0.17495   0.10108   0.00000  Uiso   1.00
S1106  S     0.40921   0.18725   0.12767   0.00000  Uiso   1.00
S1107  S     0.40921   0.18725   0.07450   0.00000  Uiso   1.00
W1108  W     0.39688   0.21183   0.10108   0.00000  Uiso   1.00
S1109  S     0.40305   0.22412   0.12767   0.00000  Uiso   1.00
S1110  S     0.40305   0.22412   0.07450   0.00000  Uiso   1.00
W1111  W     0.39071   0.24870   0.10108   0.00000  Uiso   1.00
S1112  S     0.39688   0.26100   0.12767   0.00000  Uiso   1.00
S1113  S     0.39688   0.26100   0.07450   0.00000  Uiso   1.00
W1114  W     0.38454   0.28558   0.10108   0.00000  Uiso   1.00
S1115  S     0.39071   0.29787   0.12767   0.00000  Uiso   1.00
S1116  S     0.39071   0.29787   0.07450   0.00000  Uiso   1.00
W1117  W     0.37838   0.32245   0.10108   0.00000  Uiso   1.00
S1118  S     0.38454   0.33474   0.12767   0.00000  Uiso   1.00
S1119  S     0.38454   0.33474   0.07450   0.00000  Uiso   1.00
W1120  W     0.37221   0.35933   0.10108   0.00000  Uiso   1.00
S1121  S     0.37838   0.37162   0.12767   0.00000  Uiso   1.00
S1122  S     0.37838   0.37162   0.07450   0.00000  Uiso   1.00
W1123  W     0.36604   0.39620   0.10108   0.00000  Uiso   1.00
S1124  S     0.37221   0.40849   0.12767   0.00000  Uiso   1.00
S1125  S     0.37221   0.40849   0.07450   0.00000  Uiso   1.00
W1126  W     0.35987   0.43308   0.10108   0.00000  Uiso   1.00
S1127  S     0.36604   0.44537   0.12767   0.00000  Uiso   1.00
S1128  S     0.36604   0.44537   0.07450   0.00000  Uiso   1.00
W1129  W     0.35370   0.46995   0.10108   0.00000  Uiso   1.00
S1130  S     0.35987   0.48224   0.12767   0.00000  Uiso   1.00
S1131  S     0.35987   0.48224   0.07450   0.00000  Uiso   1.00
W1132  W     0.34754   0.50683   0.10108   0.00000  Uiso   1.00
S1133  S     0.35370   0.51912   0.12767   0.00000  Uiso   1.00
S1134  S     0.35370   0.51912   0.07450   0.00000  Uiso   1.00
W1135  W     0.34137   0.54370   0.10108   0.00000  Uiso   1.00
S1136  S     0.34754   0.55599   0.12767   0.00000  Uiso   1.00
S1137  S     0.34754   0.55599   0.07450   0.00000  Uiso   1.00
W1138  W     0.33520   0.58058   0.10108   0.00000  Uiso   1.00
S1139  S     0.34137   0.59287   0.12767   0.00000  Uiso   1.00
S1140  S     0.34137   0.59287   0.07450   0.00000  Uiso   1.00
W1141  W     0.32903   0.61745   0.10108   0.00000  Uiso   1.00
S1142  S     0.33520   0.62974   0.12767   0.00000  Uiso   1.00
S1143  S     0.33520   0.62974   0.07450   0.00000  Uiso   1.00
W1144  W     0.32287   0.65433   0.10108   0.00000  Uiso   1.00
S1145  S     0.32903   0.66662   0.12767   0.00000  Uiso   1.00
S1146  S     0.32903   0.66662   0.07450   0.00000  Uiso   1.00
W1147  W     0.31670   0.69120   0.10108   0.00000  Uiso   1.00
S1148  S     0.32287   0.70349   0.12767   0.00000  Uiso   1.00
S1149  S     0.32287   0.70349   0.07450   0.00000  Uiso   1.00
W1150  W     0.31053   0.72808   0.10108   0.00000  Uiso   1.00
S1151  S     0.31670   0.74037   0.12767   0.00000  Uiso   1.00
S1152  S     0.31670   0.74037   0.07450   0.00000  Uiso   1.00
W1153  W     0.30436   0.76495   0.10108   0.00000  Uiso   1.00
S1154  S     0.31053   0.77724   0.12767   0.00000  Uiso   1.00
S1155  S     0.31053   0.77724   0.07450   0.00000  Uiso   1.00
W1156  W     0.29820   0.80183   0.10108   0.00000  Uiso   1.00
S1157  S     0.30436   0.81412   0.12767   0.00000  Uiso   1.00
S1158  S     0.30436   0.81412   0.07450   0.00000  Uiso   1.00
W1159  W     0.29203   0.83870   0.10108   0.00000  Uiso   1.00
S1160  S     0.29820   0.85099   0.12767   0.00000  Uiso   1.00
S1161  S     0.29820   0.85099   0.07450   0.00000  Uiso   1.00
W1162  W     0.28586   0.87558   0.10108   0.00000  Uiso   1.00
S1163  S     0.29203   0.88787   0.12767   0.00000  Uiso   1.00
S1164  S     0.29203   0.88787   0.07450   0.00000  Uiso   1.00
W1165  W     0.27969   0.91245   0.10108   0.00000  Uiso   1.00
S1166  S     0.28586   0.92474   0.12767   0.00000  Uiso   1.00
S1167  S     0.28586   0.92474   0.07450   0.00000  Uiso   1.00
W1168  W     0.27353   0.94932   0.10108   0.00000  Uiso   1.00
S1169  S     0.27969   0.96162   0.12767   0.00000  Uiso   1.00
S1170  S     0.27969   0.96162   0.07450   0.00000  Uiso   1.00
W1171  W     0.44005   0.02746   0.10108   0.00000  Uiso   1.00
S1172  S     0.44622   0.03975   0.12767   0.00000  Uiso   1.00
S1173  S     0.44622   0.03975   0.07450   0.00000  Uiso   1.00
W1174  W     0.43388   0.06433   0.10108   0.00000  Uiso   1.00
S1175  S     0.44005   0.07662   0.12767   0.00000  Uiso   1.00
S1176  S     0.44005   0.07662   0.07450   0.00000  Uiso   1.00
W1177  W     0.42772   0.10120   0.10108   0.00000  Uiso   1.00
S1178  S     0.43388   0.11350   0.12767   0.00000  Uiso   1.00
S1179  S     0.43388   0.11350   0.07450   0.00000  Uiso   1.00
W1180  W     0.42155   0.13808   0.10108   0.00000  Uiso   1.00
S1181  S     0.42772   0.15037   0.12767   0.00000  Uiso   1.00
S1182  S     0.42772   0.15037   0.07450   0.00000  Uiso   1.00
W1183  W     0.41538   0.17495   0.10108   0.00000  Uiso   1.00
S1184  S     0.42155   0.18725   0.12767   0.00000  Uiso   1.00
S1185  S     0.42155   0.18725   0.07450   0.00000  Uiso   1.00
W1186  W     0.40921   0.21183   0.10108   0.00000  Uiso   1.00
S1187  S     0.41538   0.22412   0.12767   0.00000  Uiso   1.00
S1188  S     0.41538   0.22412   0.07450   0.00000  Uiso   1.00
W1189  W     0.40305   0.24870   0.10108   0.00000  Uiso   1.00
S1190  S     0.40921   0.26100   0.12767   0.00000  Uiso   1.00
S1191  S     0.40921   0.26100   0.07450   0.00000  Uiso   1.00
W1192  W     0.39688   0.28558   0.10108   0.00000  Uiso   1.00
S1193  S     0.40305   0.29787   0.12767   0.00000  Uiso   1.00
S1194  S     0.40305   0.29787   0.07450   0.00000  Uiso   1.00
W1195  W     0.39071   0.32245   0.10108   0.00000  Uiso   1.00
S1196  S     0.39688   0.33474   0.12767   0.00000  Uiso   1.00
S1197  S     0.39688   0.33474   0.07450   0.00000  Uiso   1.00
W1198  W     0.38454   0.35933   0.10108   0.00000  Uiso   1.00
S1199  S     0.39071   0.37162   0.12767   0.00000  Uiso   1.00
S1200  S     0.39071   0.37162   0.07450   0.00000  Uiso   1.00
W1201  W     0.37838   0.39620   0.10108   0.00000  Uiso   1.00
S1202  S     0.38454   0.40849   0.12767   0.00000  Uiso   1.00
S1203  S     0.38454   0.40849   0.07450   0.00000  Uiso   1.00
W1204  W     0.37221   0.43308   0.10108   0.00000  Uiso   1.00
S1205  S     0.37838   0.44537   0.12767   0.00000  Uiso   1.00
S1206  S     0.37838   0.44537   0.07450   0.00000  Uiso   1.00
W1207  W     0.36604   0.46995   0.10108   0.00000  Uiso   1.00
S1208  S     0.37221   0.48224   0.12767   0.00000  Uiso   1.00
S1209  S     0.37221   0.48224   0.07450   0.00000  Uiso   1.00
W1210  W     0.35987   0.50683   0.10108   0.00000  Uiso   1.00
S1211  S     0.36604   0.51912   0.12767   0.00000  Uiso   1.00
S1212  S     0.36604   0.51912   0.07450   0.00000  Uiso   1.00
W1213  W     0.35370   0.54370   0.10108   0.00000  Uiso   1.00
S1214  S     0.35987   0.55599   0.12767   0.00000  Uiso   1.00
S1215  S     0.35987   0.55599   0.07450   0.00000  Uiso   1.00
W1216  W     0.34754   0.58058   0.10108   0.00000  Uiso   1.00
S1217  S     0.35370   0.59287   0.12767   0.00000  Uiso   1.00
S1218  S     0.35370   0.59287   0.07450   0.00000  Uiso   1.00
W1219  W     0.34137   0.61745   0.10108   0.00000  Uiso   1.00
S1220  S     0.34754   0.62974   0.12767   0.00000  Uiso   1.00
S1221  S     0.34754   0.62974   0.07450   0.00000  Uiso   1.00
W1222  W     0.33520   0.65433   0.10108   0.00000  Uiso   1.00
S1223  S     0.34137   0.66662   0.12767   0.00000  Uiso   1.00
S1224  S     0.34137   0.66662   0.07450   0.00000  Uiso   1.00
W1225  W     0.32903   0.69120   0.10108   0.00000  Uiso   1.00
S1226  S     0.33520   0.70349   0.12767   0.00000  Uiso   1.00
S1227  S     0.33520   0.70349   0.07450   0.00000  Uiso   1.00
W1228  W     0.32287   0.72808   0.10108   0.00000  Uiso   1.00
S1229  S     0.32903   0.74037   0.12767   0.00000  Uiso   1.00
S1230  S     0.32903   0.74037   0.07450   0.00000  Uiso   1.00
W1231  W     0.31670   0.76495   0.10108   0.00000  Uiso   1.00
S1232  S     0.32287   0.77724   0.12767   0.00000  Uiso   1.00
S1233  S     0.32287   0.77724   0.07450   0.00000  Uiso   1.00
W1234  W     0.31053   0.80183   0.10108   0.00000  Uiso   1.00
S1235  S     0.31670   0.81412   0.12767   0.00000  Uiso   1.00
S1236  S     0.31670   0.81412   0.07450   0.00000  Uiso   1.00
W1237  W     0.30436   0.83870   0.10108   0.00000  Uiso   1.00
S1238  S     0.31053   0.85099   0.12767   0.00000  Uiso   1.00
S1239  S     0.31053   0.85099   0.07450   0.00000  Uiso   1.00
W1240  W     0.29820   0.87558   0.10108   0.00000  Uiso   1.00
S1241  S     0.30436   0.88787   0.12767   0.00000  Uiso   1.00
S1242  S     0.30436   0.88787   0.07450   0.00000  Uiso   1.00
W1243  W     0.29203   0.91245   0.10108   0.00000  Uiso   1.00
S1244  S     0.29820   0.92474   0.12767   0.00000  Uiso   1.00
S1245  S     0.29820   0.92474   0.07450   0.00000  Uiso   1.00
W1246  W     0.28586   0.94932   0.10108   0.00000  Uiso   1.00
S1247  S     0.29203   0.96162   0.12767   0.00000  Uiso   1.00
S1248  S     0.29203   0.96162   0.07450   0.00000  Uiso   1.00
W1249  W     0.45239   0.02746   0.10108   0.00000  Uiso   1.00
S1250  S     0.45855   0.03975   0.12767   0.00000  Uiso   1.00
S1251  S     0.45855   0.03975   0.07450   0.00000  Uiso   1.00
W1252  W     0.44622   0.06433   0.10108   0.00000  Uiso   1.00
S1253  S     0.45239   0.07662   0.12767   0.00000  Uiso   1.00
S1254  S     0.45239   0.07662   0.07450   0.00000  Uiso   1.00
W1255  W     0.44005   0.10120   0.10108   0.00000  Uiso   1.00
S1256  S     0.44622   0.11350   0.12767   0.00000  Uiso   1.00
S1257  S     0.44622   0.11350   0.07450   0.00000  Uiso   1.00
W1258  W     0.43388   0.13808   0.10108   0.00000  Uiso   1.00
S1259  S     0.44005   0.15037   0.12767   0.00000  Uiso   1.00
S1260  S     0.44005   0.15037   0.07450   0.00000  Uiso   1.00
W1261  W     0.42772   0.17495   0.10108   0.00000  Uiso   1.00
S1262  S     0.43388   0.18725   0.12767   0.00000  Uiso   1.00
S1263  S     0.43388   0.18725   0.07450   0.00000  Uiso   1.00
W1264  W     0.42155   0.21183   0.10108   0.00000  Uiso   1.00
S1265  S     0.42772   0.22412   0.12767   0.00000  Uiso   1.00
S1266  S     0.42772   0.22412   0.07450   0.00000  Uiso   1.00
W1267  W     0.41538   0.24870   0.10108   0.00000  Uiso   1.00
S1268  S     0.42155   0.26100   0.12767   0.00000  Uiso   1.00
S1269  S     0.42155   0.26100   0.07450   0.00000  Uiso   1.00
W1270  W     0.40921   0.28558   0.10108   0.00000  Uiso   1.00
S1271  S     0.41538   0.29787   0.12767   0.00000  Uiso   1.00
S1272  S     0.41538   0.29787   0.07450   0.00000  Uiso   1.00
W1273  W     0.40305   0.32245   0.10108   0.00000  Uiso   1.00
S1274  S     0.40921   0.33474   0.12767   0.00000  Uiso   1.00
S1275  S     0.40921   0.33474   0.07450   0.00000  Uiso   1.00
W1276  W     0.39688   0.35933   0.10108   0.00000  Uiso   1.00
S1277  S     0.40305   0.37162   0.12767   0.00000  Uiso   1.00
S1278  S     0.40305   0.37162   0.07450   0.00000  Uiso   1.00
W1279  W     0.39071   0.39620   0.10108   0.00000  Uiso   1.00
S1280  S     0.39688   0.40849   0.12767   0.00000  Uiso   1.00
S1281  S     0.39688   0.40849   0.07450   0.00000  Uiso   1.00
W1282  W     0.38454   0.43308   0.10108   0.00000  Uiso   1.00
S1283  S     0.39071   0.44537   0.12767   0.00000  Uiso   1.00
S1284  S     0.39071   0.44537   0.07450   0.00000  Uiso   1.00
W1285  W     0.37838   0.46995   0.10108   0.00000  Uiso   1.00
S1286  S     0.38454   0.48224   0.12767   0.00000  Uiso   1.00
S1287  S     0.38454   0.48224   0.07450   0.00000  Uiso   1.00
W1288  W     0.37221   0.50683   0.10108   0.00000  Uiso   1.00
S1289  S     0.37838   0.51912   0.12767   0.00000  Uiso   1.00
S1290  S     0.37838   0.51912   0.07450   0.00000  Uiso   1.00
W1291  W     0.36604   0.54370   0.10108   0.00000  Uiso   1.00
S1292  S     0.37221   0.55599   0.12767   0.00000  Uiso   1.00
S1293  S     0.37221   0.55599   0.07450   0.00000  Uiso   1.00
W1294  W     0.35987   0.58058   0.10108   0.00000  Uiso   1.00
S1295  S     0.36604   0.59287   0.12767   0.00000  Uiso   1.00
S1296  S     0.36604   0.59287   0.07450   0.00000  Uiso   1.00
W1297  W     0.35370   0.61745   0.10108   0.00000  Uiso   1.00
S1298  S     0.35987   0.62974   0.12767   0.00000  Uiso   1.00
S1299  S     0.35987   0.62974   0.07450   0.00000  Uiso   1.00
W1300  W     0.34754   0.65433   0.10108   0.00000  Uiso   1.00
S1301  S     0.35370   0.66662   0.12767   0.00000  Uiso   1.00
S1302  S     0.35370   0.66662   0.07450   0.00000  Uiso   1.00
W1303  W     0.34137   0.69120   0.10108   0.00000  Uiso   1.00
S1304  S     0.34754   0.70349   0.12767   0.00000  Uiso   1.00
S1305  S     0.34754   0.70349   0.07450   0.00000  Uiso   1.00
W1306  W     0.33520   0.72808   0.10108   0.00000  Uiso   1.00
S1307  S     0.34137   0.74037   0.12767   0.00000  Uiso   1.00
S1308  S     0.34137   0.74037   0.07450   0.00000  Uiso   1.00
W1309  W     0.32903   0.76495   0.10108   0.00000  Uiso   1.00
S1310  S     0.33520   0.77724   0.12767   0.00000  Uiso   1.00
S1311  S     0.33520   0.77724   0.07450   0.00000  Uiso   1.00
W1312  W     0.32287   0.80183   0.10108   0.00000  Uiso   1.00
S1313  S     0.32903   0.81412   0.12767   0.00000  Uiso   1.00
S1314  S     0.32903   0.81412   0.07450   0.00000  Uiso   1.00
W1315  W     0.31670   0.83870   0.10108   0.00000  Uiso   1.00
S1316  S     0.32287   0.85099   0.12767   0.00000  Uiso   1.00
S1317  S     0.32287   0.85099   0.07450   0.00000  Uiso   1.00
W1318  W     0.31053   0.87558   0.10108   0.00000  Uiso   1.00
S1319  S     0.31670   0.88787   0.12767   0.00000  Uiso   1.00
S1320  S     0.31670   0.88787   0.07450   0.00000  Uiso   1.00
W1321  W     0.30436   0.91245   0.10108   0.00000  Uiso   1.00
S1322  S     0.31053   0.92474   0.12767   0.00000  Uiso   1.00
S1323  S     0.31053   0.92474   0.07450   0.00000  Uiso   1.00
W1324  W     0.29820   0.94932   0.10108   0.00000  Uiso   1.00
S1325  S     0.30436   0.96162   0.12767   0.00000  Uiso   1.00
S1326  S     0.30436   0.96162   0.07450   0.00000  Uiso   1.00
W1327  W     0.46472   0.02746   0.10108   0.00000  Uiso   1.00
S1328  S     0.47089   0.03975   0.12767   0.00000  Uiso   1.00
S1329  S     0.47089   0.03975   0.07450   0.00000  Uiso   1.00
W1330  W     0.45855   0.06433   0.10108   0.00000  Uiso   1.00
S1331  S     0.46472   0.07662   0.12767   0.00000  Uiso   1.00
S1332  S     0.46472   0.07662   0.07450   0.00000  Uiso   1.00
W1333  W     0.45239   0.10120   0.10108   0.00000  Uiso   1.00
S1334  S     0.45855   0.11350   0.12767   0.00000  Uiso   1.00
S1335  S     0.45855   0.11350   0.07450   0.00000  Uiso   1.00
W1336  W     0.44622   0.13808   0.10108   0.00000  Uiso   1.00
S1337  S     0.45239   0.15037   0.12767   0.00000  Uiso   1.00
S1338  S     0.45239   0.15037   0.07450   0.00000  Uiso   1.00
W1339  W     0.44005   0.17495   0.10108   0.00000  Uiso   1.00
S1340  S     0.44622   0.18725   0.12767   0.00000  Uiso   1.00
S1341  S     0.44622   0.18725   0.07450   0.00000  Uiso   1.00
W1342  W     0.43388   0.21183   0.10108   0.00000  Uiso   1.00
S1343  S     0.44005   0.22412   0.12767   0.00000  Uiso   1.00
S1344  S     0.44005   0.22412   0.07450   0.00000  Uiso   1.00
W1345  W     0.42772   0.24870   0.10108   0.00000  Uiso   1.00
S1346  S     0.43388   0.26100   0.12767   0.00000  Uiso   1.00
S1347  S     0.43388   0.26100   0.07450   0.00000  Uiso   1.00
W1348  W     0.42155   0.28558   0.10108   0.00000  Uiso   1.00
S1349  S     0.42772   0.29787   0.12767   0.00000  Uiso   1.00
S1350  S     0.42772   0.29787   0.07450   0.00000  Uiso   1.00
W1351  W     0.41538   0.32245   0.10108   0.00000  Uiso   1.00
S1352  S     0.42155   0.33474   0.12767   0.00000  Uiso   1.00
S1353  S     0.42155   0.33474   0.07450   0.00000  Uiso   1.00
W1354  W     0.40921   0.35933   0.10108   0.00000  Uiso   1.00
S1355  S     0.41538   0.37162   0.12767   0.00000  Uiso   1.00
S1356  S     0.41538   0.37162   0.07450   0.00000  Uiso   1.00
W1357  W     0.40305   0.39620   0.10108   0.00000  Uiso   1.00
S1358  S     0.40921   0.40849   0.12767   0.00000  Uiso   1.00
S1359  S     0.40921   0.40849   0.07450   0.00000  Uiso   1.00
W1360  W     0.39688   0.43308   0.10108   0.00000  Uiso   1.00
S1361  S     0.40305   0.44537   0.12767   0.00000  Uiso   1.00
S1362  S     0.40305   0.44537   0.07450   0.00000  Uiso   1.00
W1363  W     0.39071   0.46995   0.10108   0.00000  Uiso   1.00
S1364  S     0.39688   0.48224   0.12767   0.00000  Uiso   1.00
S1365  S     0.39688   0.48224   0.07450   0.00000  Uiso   1.00
W1366  W     0.38454   0.50683   0.10108   0.00000  Uiso   1.00
S1367  S     0.39071   0.51912   0.12767   0.00000  Uiso   1.00
S1368  S     0.39071   0.51912   0.07450   0.00000  Uiso   1.00
W1369  W     0.37838   0.54370   0.10108   0.00000  Uiso   1.00
S1370  S     0.38454   0.55599   0.12767   0.00000  Uiso   1.00
S1371  S     0.38454   0.55599   0.07450   0.00000  Uiso   1.00
W1372  W     0.37221   0.58058   0.10108   0.00000  Uiso   1.00
S1373  S     0.37838   0.59287   0.12767   0.00000  Uiso   1.00
S1374  S     0.37838   0.59287   0.07450   0.00000  Uiso   1.00
W1375  W     0.36604   0.61745   0.10108   0.00000  Uiso   1.00
S1376  S     0.37221   0.62974   0.12767   0.00000  Uiso   1.00
S1377  S     0.37221   0.62974   0.07450   0.00000  Uiso   1.00
W1378  W     0.35987   0.65433   0.10108   0.00000  Uiso   1.00
S1379  S     0.36604   0.66662   0.12767   0.00000  Uiso   1.00
S1380  S     0.36604   0.66662   0.07450   0.00000  Uiso   1.00
W1381  W     0.35370   0.69120   0.10108   0.00000  Uiso   1.00
S1382  S     0.35987   0.70349   0.12767   0.00000  Uiso   1.00
S1383  S     0.35987   0.70349   0.07450   0.00000  Uiso   1.00
W1384  W     0.34754   0.72808   0.10108   0.00000  Uiso   1.00
S1385  S     0.35370   0.74037   0.12767   0.00000  Uiso   1.00
S1386  S     0.35370   0.74037   0.07450   0.00000  Uiso   1.00
W1387  W     0.34137   0.76495   0.10108   0.00000  Uiso   1.00
S1388  S     0.34754   0.77724   0.12767   0.00000  Uiso   1.00
S1389  S     0.34754   0.77724   0.07450   0.00000  Uiso   1.00
W1390  W     0.33520   0.80183   0.10108   0.00000  Uiso   1.00
S1391  S     0.34137   0.81412   0.12767   0.00000  Uiso   1.00
S1392  S     0.34137   0.81412   0.07450   0.00000  Uiso   1.00
W1393  W     0.32903   0.83870   0.10108   0.00000  Uiso   1.00
S1394  S     0.33520   0.85099   0.12767   0.00000  Uiso   1.00
S1395  S     0.33520   0.85099   0.07450   0.00000  Uiso   1.00
W1396  W     0.32287   0.87558   0.10108   0.00000  Uiso   1.00
S1397  S     0.32903   0.88787   0.12767   0.00000  Uiso   1.00
S1398  S     0.32903   0.88787   0.07450   0.00000  Uiso   1.00
W1399  W     0.31670   0.91245   0.10108   0.00000  Uiso   1.00
S1400  S     0.32287   0.92474   0.12767   0.00000  Uiso   1.00
S1401  S     0.32287   0.92474   0.07450   0.00000  Uiso   1.00
W1402  W     0.31053   0.94932   0.10108   0.00000  Uiso   1.00
S1403  S     0.31670   0.96162   0.12767   0.00000  Uiso   1.00
S1404  S     0.31670   0.96162   0.07450   0.00000  Uiso   1.00
W1405  W     0.47706   0.02746   0.10108   0.00000  Uiso   1.00
S1406  S     0.48322   0.03975   0.12767   0.00000  Uiso   1.00
S1407  S     0.48322   0.03975   0.07450   0.00000  Uiso   1.00
W1408  W     0.47089   0.06433   0.10108   0.00000  Uiso   1.00
S1409  S     0.47706   0.07662   0.12767   0.00000  Uiso   1.00
S1410  S     0.47706   0.07662   0.07450   0.00000  Uiso   1.00
W1411  W     0.46472   0.10120   0.10108   0.00000  Uiso   1.00
S1412  S     0.47089   0.11350   0.12767   0.00000  Uiso   1.00
S1413  S     0.47089   0.11350   0.07450   0.00000  Uiso   1.00
W1414  W     0.45855   0.13808   0.10108   0.00000  Uiso   1.00
S1415  S     0.46472   0.15037   0.12767   0.00000  Uiso   1.00
S1416  S     0.46472   0.15037   0.07450   0.00000  Uiso   1.00
W1417  W     0.45239   0.17495   0.10108   0.00000  Uiso   1.00
S1418  S     0.45855   0.18725   0.12767   0.00000  Uiso   1.00
S1419  S     0.45855   0.18725   0.07450   0.00000  Uiso   1.00
W1420  W     0.44622   0.21183   0.10108   0.00000  Uiso   1.00
S1421  S     0.45239   0.22412   0.12767   0.00000  Uiso   1.00
S1422  S     0.45239   0.22412   0.07450   0.00000  Uiso   1.00
W1423  W     0.44005   0.24870   0.10108   0.00000  Uiso   1.00
S1424  S     0.44622   0.26100   0.12767   0.00000  Uiso   1.00
S1425  S     0.44622   0.26100   0.07450   0.00000  Uiso   1.00
W1426  W     0.43388   0.28558   0.10108   0.00000  Uiso   1.00
S1427  S     0.44005   0.29787   0.12767   0.00000  Uiso   1.00
S1428  S     0.44005   0.29787   0.07450   0.00000  Uiso   1.00
W1429  W     0.42772   0.32245   0.10108   0.00000  Uiso   1.00
S1430  S     0.43388   0.33474   0.12767   0.00000  Uiso   1.00
S1431  S     0.43388   0.33474   0.07450   0.00000  Uiso   1.00
W1432  W     0.42155   0.35933   0.10108   0.00000  Uiso   1.00
S1433  S     0.42772   0.37162   0.12767   0.00000  Uiso   1.00
S1434  S     0.42772   0.37162   0.07450   0.00000  Uiso   1.00
W1435  W     0.41538   0.39620   0.10108   0.00000  Uiso   1.00
S1436  S     0.42155   0.40849   0.12767   0.00000  Uiso   1.00
S1437  S     0.42155   0.40849   0.07450   0.00000  Uiso   1.00
W1438  W     0.40921   0.43308   0.10108   0.00000  Uiso   1.00
S1439  S     0.41538   0.44537   0.12767   0.00000  Uiso   1.00
S1440  S     0.41538   0.44537   0.07450   0.00000  Uiso   1.00
W1441  W     0.40305   0.46995   0.10108   0.00000  Uiso   1.00
S1442  S     0.40921   0.48224   0.12767   0.00000  Uiso   1.00
S1443  S     0.40921   0.48224   0.07450   0.00000  Uiso   1.00
W1444  W     0.39688   0.50683   0.10108   0.00000  Uiso   1.00
S1445  S     0.40305   0.51912   0.12767   0.00000  Uiso   1.00
S1446  S     0.40305   0.51912   0.07450   0.00000  Uiso   1.00
W1447  W     0.39071   0.54370   0.10108   0.00000  Uiso   1.00
S1448  S     0.39688   0.55599   0.12767   0.00000  Uiso   1.00
S1449  S     0.39688   0.55599   0.07450   0.00000  Uiso   1.00
W1450  W     0.38454   0.58058   0.10108   0.00000  Uiso   1.00
S1451  S     0.39071   0.59287   0.12767   0.00000  Uiso   1.00
S1452  S     0.39071   0.59287   0.07450   0.00000  Uiso   1.00
W1453  W     0.37838   0.61745   0.10108   0.00000  Uiso   1.00
S1454  S     0.38454   0.62974   0.12767   0.00000  Uiso   1.00
S1455  S     0.38454   0.62974   0.07450   0.00000  Uiso   1.00
W1456  W     0.37221   0.65433   0.10108   0.00000  Uiso   1.00
S1457  S     0.37838   0.66662   0.12767   0.00000  Uiso   1.00
S1458  S     0.37838   0.66662   0.07450   0.00000  Uiso   1.00
W1459  W     0.36604   0.69120   0.10108   0.00000  Uiso   1.00
S1460  S     0.37221   0.70349   0.12767   0.00000  Uiso   1.00
S1461  S     0.37221   0.70349   0.07450   0.00000  Uiso   1.00
W1462  W     0.35987   0.72808   0.10108   0.00000  Uiso   1.00
S1463  S     0.36604   0.74037   0.12767   0.00000  Uiso   1.00
S1464  S     0.36604   0.74037   0.07450   0.00000  Uiso   1.00
W1465  W     0.35370   0.76495   0.10108   0.00000  Uiso   1.00
S1466  S     0.35987   0.77724   0.12767   0.00000  Uiso   1.00
S1467  S     0.35987   0.77724   0.07450   0.00000  Uiso   1.00
W1468  W     0.34754   0.80183   0.10108   0.00000  Uiso   1.00
S1469  S     0.35370   0.81412   0.12767   0.00000  Uiso   1.00
S1470  S     0.35370   0.81412   0.07450   0.00000  Uiso   1.00
W1471  W     0.34137   0.83870   0.10108   0.00000  Uiso   1.00
S1472  S     0.34754   0.85099   0.12767   0.00000  Uiso   1.00
S1473  S     0.34754   0.85099   0.07450   0.00000  Uiso   1.00
W1474  W     0.33520   0.87558   0.10108   0.00000  Uiso   1.00
S1475  S     0.34137   0.88787   0.12767   0.00000  Uiso   1.00
S1476  S     0.34137   0.88787   0.07450   0.00000  Uiso   1.00
W1477  W     0.32903   0.91245   0.10108   0.00000  Uiso   1.00
S1478  S     0.33520   0.92474   0.12767   0.00000  Uiso   1.00
S1479  S     0.33520   0.92474   0.07450   0.00000  Uiso   1.00
W1480  W     0.32287   0.94932   0.10108   0.00000  Uiso   1.00
S1481  S     0.32903   0.96162   0.12767   0.00000  Uiso   1.00
S1482  S     0.32903   0.96162   0.07450   0.00000  Uiso   1.00
W1483  W     0.48939   0.02746   0.10108   0.00000  Uiso   1.00
S1484  S     0.49556   0.03975   0.12767   0.00000  Uiso   1.00
S1485  S     0.49556   0.03975   0.07450   0.00000  Uiso   1.00
W1486  W     0.48322   0.06433   0.10108   0.00000  Uiso   1.00
S1487  S     0.48939   0.07662   0.12767   0.00000  Uiso   1.00
S1488  S     0.48939   0.07662   0.07450   0.00000  Uiso   1.00
W1489  W     0.47706   0.10120   0.10108   0.00000  Uiso   1.00
S1490  S     0.48322   0.11350   0.12767   0.00000  Uiso   1.00
S1491  S     0.48322   0.11350   0.07450   0.00000  Uiso   1.00
W1492  W     0.47089   0.13808   0.10108   0.00000  Uiso   1.00
S1493  S     0.47706   0.15037   0.12767   0.00000  Uiso   1.00
S1494  S     0.47706   0.15037   0.07450   0.00000  Uiso   1.00
W1495  W     0.46472   0.17495   0.10108   0.00000  Uiso   1.00
S1496  S     0.47089   0.18725   0.12767   0.00000  Uiso   1.00
S1497  S     0.47089   0.18725   0.07450   0.00000  Uiso   1.00
W1498  W     0.45855   0.21183   0.10108   0.00000  Uiso   1.00
S1499  S     0.46472   0.22412   0.12767   0.00000  Uiso   1.00
S1500  S     0.46472   0.22412   0.07450   0.00000  Uiso   1.00
W1501  W     0.45239   0.24870   0.10108   0.00000  Uiso   1.00
S1502  S     0.45855   0.26100   0.12767   0.00000  Uiso   1.00
S1503  S     0.45855   0.26100   0.07450   0.00000  Uiso   1.00
W1504  W     0.44622   0.28558   0.10108   0.00000  Uiso   1.00
S1505  S     0.45239   0.29787   0.12767   0.00000  Uiso   1.00
S1506  S     0.45239   0.29787   0.07450   0.00000  Uiso   1.00
W1507  W     0.44005   0.32245   0.10108   0.00000  Uiso   1.00
S1508  S     0.44622   0.33474   0.12767   0.00000  Uiso   1.00
S1509  S     0.44622   0.33474   0.07450   0.00000  Uiso   1.00
W1510  W     0.43388   0.35933   0.10108   0.00000  Uiso   1.00
S1511  S     0.44005   0.37162   0.12767   0.00000  Uiso   1.00
S1512  S     0.44005   0.37162   0.07450   0.00000  Uiso   1.00
W1513  W     0.42772   0.39620   0.10108   0.00000  Uiso   1.00
S1514  S     0.43388   0.40849   0.12767   0.00000  Uiso   1.00
S1515  S     0.43388   0.40849   0.07450   0.00000  Uiso   1.00
W1516  W     0.42155   0.43308   0.10108   0.00000  Uiso   1.00
S1517  S     0.42772   0.44537   0.12767   0.00000  Uiso   1.00
S1518  S     0.42772   0.44537   0.07450   0.00000  Uiso   1.00
W1519  W     0.41538   0.46995   0.10108   0.00000  Uiso   1.00
S1520  S     0.42155   0.48224   0.12767   0.00000  Uiso   1.00
S1521  S     0.42155   0.48224   0.07450   0.00000  Uiso   1.00
W1522  W     0.40921   0.50683   0.10108   0.00000  Uiso   1.00
S1523  S     0.41538   0.51912   0.12767   0.00000  Uiso   1.00
S1524  S     0.41538   0.51912   0.07450   0.00000  Uiso   1.00
W1525  W     0.40305   0.54370   0.10108   0.00000  Uiso   1.00
S1526  S     0.40921   0.55599   0.12767   0.00000  Uiso   1.00
S1527  S     0.40921   0.55599   0.07450   0.00000  Uiso   1.00
W1528  W     0.39688   0.58058   0.10108   0.00000  Uiso   1.00
S1529  S     0.40305   0.59287   0.12767   0.00000  Uiso   1.00
S1530  S     0.40305   0.59287   0.07450   0.00000  Uiso   1.00
W1531  W     0.39071   0.61745   0.10108   0.00000  Uiso   1.00
S1532  S     0.39688   0.62974   0.12767   0.00000  Uiso   1.00
S1533  S     0.39688   0.62974   0.07450   0.00000  Uiso   1.00
W1534  W     0.38454   0.65433   0.10108   0.00000  Uiso   1.00
S1535  S     0.39071   0.66662   0.12767   0.00000  Uiso   1.00
S1536  S     0.39071   0.66662   0.07450   0.00000  Uiso   1.00
W1537  W     0.37838   0.69120   0.10108   0.00000  Uiso   1.00
S1538  S     0.38454   0.70349   0.12767   0.00000  Uiso   1.00
S1539  S     0.38454   0.70349   0.07450   0.00000  Uiso   1.00
W1540  W     0.37221   0.72808   0.10108   0.00000  Uiso   1.00
S1541  S     0.37838   0.74037   0.12767   0.00000  Uiso   1.00
S1542  S     0.37838   0.74037   0.07450   0.00000  Uiso   1.00
W1543  W     0.36604   0.76495   0.10108   0.00000  Uiso   1.00
S1544  S     0.37221   0.77724   0.12767   0.00000  Uiso   1.00
S1545  S     0.37221   0.77724   0.07450   0.00000  Uiso   1.00
W1546  W     0.35987   0.80183   0.10108   0.00000  Uiso   1.00
S1547  S     0.36604   0.81412   0.12767   0.00000  Uiso   1.00
S1548  S     0.36604   0.81412   0.07450   0.00000  Uiso   1.00
W1549  W     0.35370   0.83870   0.10108   0.00000  Uiso   1.00
S1550  S     0.35987   0.85099   0.12767   0.00000  Uiso   1.00
S1551  S     0.35987   0.85099   0.07450   0.00000  Uiso   1.00
W1552  W     0.34754   0.87558   0.10108   0.00000  Uiso   1.00
S1553  S     0.35370   0.88787   0.12767   0.00000  Uiso   1.00
S1554  S     0.35370   0.88787   0.07450   0.00000  Uiso   1.00
W1555  W     0.34137   0.91245   0.10108   0.00000  Uiso   1.00
S1556  S     0.34754   0.92474   0.12767   0.00000  Uiso   1.00
S1557  S     0.34754   0.92474   0.07450   0.00000  Uiso   1.00
W1558  W     0.33520   0.94932   0.10108   0.00000  Uiso   1.00
S1559  S     0.34137   0.96162   0.12767   0.00000  Uiso   1.00
S1560  S     0.34137   0.96162   0.07450   0.00000  Uiso   1.00
W1561  W     0.50173   0.02746   0.10108   0.00000  Uiso   1.00
S1562  S     0.50789   0.03975   0.12767   0.00000  Uiso   1.00
S1563  S     0.50789   0.03975   0.07450   0.00000  Uiso   1.00
W1564  W     0.49556   0.06433   0.10108   0.00000  Uiso   1.00
S1565  S     0.50173   0.07662   0.12767   0.00000  Uiso   1.00
S1566  S     0.50173   0.07662   0.07450   0.00000  Uiso   1.00
W1567  W     0.48939   0.10120   0.10108   0.00000  Uiso   1.00
S1568  S     0.49556   0.11350   0.12767   0.00000  Uiso   1.00
S1569  S     0.49556   0.11350   0.07450   0.00000  Uiso   1.00
W1570  W     0.48322   0.13808   0.10108   0.00000  Uiso   1.00
S1571  S     0.48939   0.15037   0.12767   0.00000  Uiso   1.00
S1572  S     0.48939   0.15037   0.07450   0.00000  Uiso   1.00
W1573  W     0.47706   0.17495   0.10108   0.00000  Uiso   1.00
S1574  S     0.48322   0.18725   0.12767   0.00000  Uiso   1.00
S1575  S     0.48322   0.18725   0.07450   0.00000  Uiso   1.00
W1576  W     0.47089   0.21183   0.10108   0.00000  Uiso   1.00
S1577  S     0.47706   0.22412   0.12767   0.00000  Uiso   1.00
S1578  S     0.47706   0.22412   0.07450   0.00000  Uiso   1.00
W1579  W     0.46472   0.24870   0.10108   0.00000  Uiso   1.00
S1580  S     0.47089   0.26100   0.12767   0.00000  Uiso   1.00
S1581  S     0.47089   0.26100   0.07450   0.00000  Uiso   1.00
W1582  W     0.45855   0.28558   0.10108   0.00000  Uiso   1.00
S1583  S     0.46472   0.29787   0.12767   0.00000  Uiso   1.00
S1584  S     0.46472   0.29787   0.07450   0.00000  Uiso   1.00
W1585  W     0.45239   0.32245   0.10108   0.00000  Uiso   1.00
S1586  S     0.45855   0.33474   0.12767   0.00000  Uiso   1.00
S1587  S     0.45855   0.33474   0.07450   0.00000  Uiso   1.00
W1588  W     0.44622   0.35933   0.10108   0.00000  Uiso   1.00
S1589  S     0.45239   0.37162   0.12767   0.00000  Uiso   1.00
S1590  S     0.45239   0.37162   0.07450   0.00000  Uiso   1.00
W1591  W     0.44005   0.39620   0.10108   0.00000  Uiso   1.00
S1592  S     0.44622   0.40849   0.12767   0.00000  Uiso   1.00
S1593  S     0.44622   0.40849   0.07450   0.00000  Uiso   1.00
W1594  W     0.43388   0.43308   0.10108   0.00000  Uiso   1.00
S1595  S     0.44005   0.44537   0.12767   0.00000  Uiso   1.00
S1596  S     0.44005   0.44537   0.07450   0.00000  Uiso   1.00
W1597  W     0.42772   0.46995   0.10108   0.00000  Uiso   1.00
S1598  S     0.43388   0.48224   0.12767   0.00000  Uiso   1.00
S1599  S     0.43388   0.48224   0.07450   0.00000  Uiso   1.00
W1600  W     0.42155   0.50683   0.10108   0.00000  Uiso   1.00
S1601  S     0.42772   0.51912   0.12767   0.00000  Uiso   1.00
S1602  S     0.42772   0.51912   0.07450   0.00000  Uiso   1.00
W1603  W     0.41538   0.54370   0.10108   0.00000  Uiso   1.00
S1604  S     0.42155   0.55599   0.12767   0.00000  Uiso   1.00
S1605  S     0.42155   0.55599   0.07450   0.00000  Uiso   1.00
W1606  W     0.40921   0.58058   0.10108   0.00000  Uiso   1.00
S1607  S     0.41538   0.59287   0.12767   0.00000  Uiso   1.00
S1608  S     0.41538   0.59287   0.07450   0.00000  Uiso   1.00
W1609  W     0.40305   0.61745   0.10108   0.00000  Uiso   1.00
S1610  S     0.40921   0.62974   0.12767   0.00000  Uiso   1.00
S1611  S     0.40921   0.62974   0.07450   0.00000  Uiso   1.00
W1612  W     0.39688   0.65433   0.10108   0.00000  Uiso   1.00
S1613  S     0.40305   0.66662   0.12767   0.00000  Uiso   1.00
S1614  S     0.40305   0.66662   0.07450   0.00000  Uiso   1.00
W1615  W     0.39071   0.69120   0.10108   0.00000  Uiso   1.00
S1616  S     0.39688   0.70349   0.12767   0.00000  Uiso   1.00
S1617  S     0.39688   0.70349   0.07450   0.00000  Uiso   1.00
W1618  W     0.38454   0.72808   0.10108   0.00000  Uiso   1.00
S1619  S     0.39071   0.74037   0.12767   0.00000  Uiso   1.00
S1620  S     0.39071   0.74037   0.07450   0.00000  Uiso   1.00
W1621  W     0.37838   0.76495   0.10108   0.00000  Uiso   1.00
S1622  S     0.38454   0.77724   0.12767   0.00000  Uiso   1.00
S1623  S     0.38454   0.77724   0.07450   0.00000  Uiso   1.00
W1624  W     0.37221   0.80183   0.10108   0.00000  Uiso   1.00
S1625  S     0.37838   0.81412   0.12767   0.00000  Uiso   1.00
S1626  S     0.37838   0.81412   0.07450   0.00000  Uiso   1.00
W1627  W     0.36604   0.83870   0.10108   0.00000  Uiso   1.00
S1628  S     0.37221   0.85099   0.12767   0.00000  Uiso   1.00
S1629  S     0.37221   0.85099   0.07450   0.00000  Uiso   1.00
W1630  W     0.35987   0.87558   0.10108   0.00000  Uiso   1.00
S1631  S     0.36604   0.88787   0.12767   0.00000  Uiso   1.00
S1632  S     0.36604   0.88787   0.07450   0.00000  Uiso   1.00
W1633  W     0.35370   0.91245   0.10108   0.00000  Uiso   1.00
S1634  S     0.35987   0.92474   0.12767   0.00000  Uiso   1.00
S1635  S     0.35987   0.92474   0.07450   0.00000  Uiso   1.00
W1636  W     0.34754   0.94932   0.10108   0.00000  Uiso   1.00
S1637  S     0.35370   0.96162   0.12767   0.00000  Uiso   1.00
S1638  S     0.35370   0.96162   0.07450   0.00000  Uiso   1.00
W1639  W     0.51406   0.02746   0.10108   0.00000  Uiso   1.00
S1640  S     0.52023   0.03975   0.12767   0.00000  Uiso   1.00
S1641  S     0.52023   0.03975   0.07450   0.00000  Uiso   1.00
W1642  W     0.50789   0.06433   0.10108   0.00000  Uiso   1.00
S1643  S     0.51406   0.07662   0.12767   0.00000  Uiso   1.00
S1644  S     0.51406   0.07662   0.07450   0.00000  Uiso   1.00
W1645  W     0.50173   0.10120   0.10108   0.00000  Uiso   1.00
S1646  S     0.50789   0.11350   0.12767   0.00000  Uiso   1.00
S1647  S     0.50789   0.11350   0.07450   0.00000  Uiso   1.00
W1648  W     0.49556   0.13808   0.10108   0.00000  Uiso   1.00
S1649  S     0.50173   0.15037   0.12767   0.00000  Uiso   1.00
S1650  S     0.50173   0.15037   0.07450   0.00000  Uiso   1.00
W1651  W     0.48939   0.17495   0.10108   0.00000  Uiso   1.00
S1652  S     0.49556   0.18725   0.12767   0.00000  Uiso   1.00
S1653  S     0.49556   0.18725   0.07450   0.00000  Uiso   1.00
W1654  W     0.48322   0.21183   0.10108   0.00000  Uiso   1.00
S1655  S     0.48939   0.22412   0.12767   0.00000  Uiso   1.00
S1656  S     0.48939   0.22412   0.07450   0.00000  Uiso   1.00
W1657  W     0.47706   0.24870   0.10108   0.00000  Uiso   1.00
S1658  S     0.48322   0.26100   0.12767   0.00000  Uiso   1.00
S1659  S     0.48322   0.26100   0.07450   0.00000  Uiso   1.00
W1660  W     0.47089   0.28558   0.10108   0.00000  Uiso   1.00
S1661  S     0.47706   0.29787   0.12767   0.00000  Uiso   1.00
S1662  S     0.47706   0.29787   0.07450   0.00000  Uiso   1.00
W1663  W     0.46472   0.32245   0.10108   0.00000  Uiso   1.00
S1664  S     0.47089   0.33474   0.12767   0.00000  Uiso   1.00
S1665  S     0.47089   0.33474   0.07450   0.00000  Uiso   1.00
W1666  W     0.45855   0.35933   0.10108   0.00000  Uiso   1.00
S1667  S     0.46472   0.37162   0.12767   0.00000  Uiso   1.00
S1668  S     0.46472   0.37162   0.07450   0.00000  Uiso   1.00
W1669  W     0.45239   0.39620   0.10108   0.00000  Uiso   1.00
S1670  S     0.45855   0.40849   0.12767   0.00000  Uiso   1.00
S1671  S     0.45855   0.40849   0.07450   0.00000  Uiso   1.00
W1672  W     0.44622   0.43308   0.10108   0.00000  Uiso   1.00
S1673  S     0.45239   0.44537   0.12767   0.00000  Uiso   1.00
S1674  S     0.45239   0.44537   0.07450   0.00000  Uiso   1.00
W1675  W     0.44005   0.46995   0.10108   0.00000  Uiso   1.00
S1676  S     0.44622   0.48224   0.12767   0.00000  Uiso   1.00
S1677  S     0.44622   0.48224   0.07450   0.00000  Uiso   1.00
W1678  W     0.43388   0.50683   0.10108   0.00000  Uiso   1.00
S1679  S     0.44005   0.51912   0.12767   0.00000  Uiso   1.00
S1680  S     0.44005   0.51912   0.07450   0.00000  Uiso   1.00
W1681  W     0.42772   0.54370   0.10108   0.00000  Uiso   1.00
S1682  S     0.43388   0.55599   0.12767   0.00000  Uiso   1.00
S1683  S     0.43388   0.55599   0.07450   0.00000  Uiso   1.00
W1684  W     0.42155   0.58058   0.10108   0.00000  Uiso   1.00
S1685  S     0.42772   0.59287   0.12767   0.00000  Uiso   1.00
S1686  S     0.42772   0.59287   0.07450   0.00000  Uiso   1.00
W1687  W     0.41538   0.61745   0.10108   0.00000  Uiso   1.00
S1688  S     0.42155   0.62974   0.12767   0.00000  Uiso   1.00
S1689  S     0.42155   0.62974   0.07450   0.00000  Uiso   1.00
W1690  W     0.40921   0.65433   0.10108   0.00000  Uiso   1.00
S1691  S     0.41538   0.66662   0.12767   0.00000  Uiso   1.00
S1692  S     0.41538   0.66662   0.07450   0.00000  Uiso   1.00
W1693  W     0.40305   0.69120   0.10108   0.00000  Uiso   1.00
S1694  S     0.40921   0.70349   0.12767   0.00000  Uiso   1.00
S1695  S     0.40921   0.70349   0.07450   0.00000  Uiso   1.00
W1696  W     0.39688   0.72808   0.10108   0.00000  Uiso   1.00
S1697  S     0.40305   0.74037   0.12767   0.00000  Uiso   1.00
S1698  S     0.40305   0.74037   0.07450   0.00000  Uiso   1.00
W1699  W     0.39071   0.76495   0.10108   0.00000  Uiso   1.00
S1700  S     0.39688   0.77724   0.12767   0.00000  Uiso   1.00
S1701  S     0.39688   0.77724   0.07450   0.00000  Uiso   1.00
W1702  W     0.38454   0.80183   0.10108   0.00000  Uiso   1.00
S1703  S     0.39071   0.81412   0.12767   0.00000  Uiso   1.00
S1704  S     0.39071   0.81412   0.07450   0.00000  Uiso   1.00
W1705  W     0.37838   0.83870   0.10108   0.00000  Uiso   1.00
S1706  S     0.38454   0.85099   0.12767   0.00000  Uiso   1.00
S1707  S     0.38454   0.85099   0.07450   0.00000  Uiso   1.00
W1708  W     0.37221   0.87558   0.10108   0.00000  Uiso   1.00
S1709  S     0.37838   0.88787   0.12767   0.00000  Uiso   1.00
S1710  S     0.37838   0.88787   0.07450   0.00000  Uiso   1.00
W1711  W     0.36604   0.91245   0.10108   0.00000  Uiso   1.00
S1712  S     0.37221   0.92474   0.12767   0.00000  Uiso   1.00
S1713  S     0.37221   0.92474   0.07450   0.00000  Uiso   1.00
W1714  W     0.35987   0.94932   0.10108   0.00000  Uiso   1.00
S1715  S     0.36604   0.96162   0.12767   0.00000  Uiso   1.00
S1716  S     0.36604   0.96162   0.07450   0.00000  Uiso   1.00
W1717  W     0.52640   0.02746   0.10108   0.00000  Uiso   1.00
S1718  S     0.53257   0.03975   0.12767   0.00000  Uiso   1.00
S1719  S     0.53257   0.03975   0.07450   0.00000  Uiso   1.00
W1720  W     0.52023   0.06433   0.10108   0.00000  Uiso   1.00
S1721  S     0.52640   0.07662   0.12767   0.00000  Uiso   1.00
S1722  S     0.52640   0.07662   0.07450   0.00000  Uiso   1.00
W1723  W     0.51406   0.10120   0.10108   0.00000  Uiso   1.00
S1724  S     0.52023   0.11350   0.12767   0.00000  Uiso   1.00
S1725  S     0.52023   0.11350   0.07450   0.00000  Uiso   1.00
W1726  W     0.50789   0.13808   0.10108   0.00000  Uiso   1.00
S1727  S     0.51406   0.15037   0.12767   0.00000  Uiso   1.00
S1728  S     0.51406   0.15037   0.07450   0.00000  Uiso   1.00
W1729  W     0.50173   0.17495   0.10108   0.00000  Uiso   1.00
S1730  S     0.50789   0.18725   0.12767   0.00000  Uiso   1.00
S1731  S     0.50789   0.18725   0.07450   0.00000  Uiso   1.00
W1732  W     0.49556   0.21183   0.10108   0.00000  Uiso   1.00
S1733  S     0.50173   0.22412   0.12767   0.00000  Uiso   1.00
S1734  S     0.50173   0.22412   0.07450   0.00000  Uiso   1.00
W1735  W     0.48939   0.24870   0.10108   0.00000  Uiso   1.00
S1736  S     0.49556   0.26100   0.12767   0.00000  Uiso   1.00
S1737  S     0.49556   0.26100   0.07450   0.00000  Uiso   1.00
W1738  W     0.48322   0.28558   0.10108   0.00000  Uiso   1.00
S1739  S     0.48939   0.29787   0.12767   0.00000  Uiso   1.00
S1740  S     0.48939   0.29787   0.07450   0.00000  Uiso   1.00
W1741  W     0.47706   0.32245   0.10108   0.00000  Uiso   1.00
S1742  S     0.48322   0.33474   0.12767   0.00000  Uiso   1.00
S1743  S     0.48322   0.33474   0.07450   0.00000  Uiso   1.00
W1744  W     0.47089   0.35933   0.10108   0.00000  Uiso   1.00
S1745  S     0.47706   0.37162   0.12767   0.00000  Uiso   1.00
S1746  S     0.47706   0.37162   0.07450   0.00000  Uiso   1.00
W1747  W     0.46472   0.39620   0.10108   0.00000  Uiso   1.00
S1748  S     0.47089   0.40849   0.12767   0.00000  Uiso   1.00
S1749  S     0.47089   0.40849   0.07450   0.00000  Uiso   1.00
W1750  W     0.45855   0.43308   0.10108   0.00000  Uiso   1.00
S1751  S     0.46472   0.44537   0.12767   0.00000  Uiso   1.00
S1752  S     0.46472   0.44537   0.07450   0.00000  Uiso   1.00
W1753  W     0.45239   0.46995   0.10108   0.00000  Uiso   1.00
S1754  S     0.45855   0.48224   0.12767   0.00000  Uiso   1.00
S1755  S     0.45855   0.48224   0.07450   0.00000  Uiso   1.00
W1756  W     0.44622   0.50683   0.10108   0.00000  Uiso   1.00
S1757  S     0.45239   0.51912   0.12767   0.00000  Uiso   1.00
S1758  S     0.45239   0.51912   0.07450   0.00000  Uiso   1.00
W1759  W     0.44005   0.54370   0.10108   0.00000  Uiso   1.00
S1760  S     0.44622   0.55599   0.12767   0.00000  Uiso   1.00
S1761  S     0.44622   0.55599   0.07450   0.00000  Uiso   1.00
W1762  W     0.43388   0.58058   0.10108   0.00000  Uiso   1.00
S1763  S     0.44005   0.59287   0.12767   0.00000  Uiso   1.00
S1764  S     0.44005   0.59287   0.07450   0.00000  Uiso   1.00
W1765  W     0.42772   0.61745   0.10108   0.00000  Uiso   1.00
S1766  S     0.43388   0.62974   0.12767   0.00000  Uiso   1.00
S1767  S     0.43388   0.62974   0.07450   0.00000  Uiso   1.00
W1768  W     0.42155   0.65433   0.10108   0.00000  Uiso   1.00
S1769  S     0.42772   0.66662   0.12767   0.00000  Uiso   1.00
S1770  S     0.42772   0.66662   0.07450   0.00000  Uiso   1.00
W1771  W     0.41538   0.69120   0.10108   0.00000  Uiso   1.00
S1772  S     0.42155   0.70349   0.12767   0.00000  Uiso   1.00
S1773  S     0.42155   0.70349   0.07450   0.00000  Uiso   1.00
W1774  W     0.40921   0.72808   0.10108   0.00000  Uiso   1.00
S1775  S     0.41538   0.74037   0.12767   0.00000  Uiso   1.00
S1776  S     0.41538   0.74037   0.07450   0.00000  Uiso   1.00
W1777  W     0.40305   0.76495   0.10108   0.00000  Uiso   1.00
S1778  S     0.40921   0.77724   0.12767   0.00000  Uiso   1.00
S1779  S     0.40921   0.77724   0.07450   0.00000  Uiso   1.00
W1780  W     0.39688   0.80183   0.10108   0.00000  Uiso   1.00
S1781  S     0.40305   0.81412   0.12767   0.00000  Uiso   1.00
S1782  S     0.40305   0.81412   0.07450   0.00000  Uiso   1.00
W1783  W     0.39071   0.83870   0.10108   0.00000  Uiso   1.00
S1784  S     0.39688   0.85099   0.12767   0.00000  Uiso   1.00
S1785  S     0.39688   0.85099   0.07450   0.00000  Uiso   1.00
W1786  W     0.38454   0.87558   0.10108   0.00000  Uiso   1.00
S1787  S     0.39071   0.88787   0.12767   0.00000  Uiso   1.00
S1788  S     0.39071   0.88787   0.07450   0.00000  Uiso   1.00
W1789  W     0.37838   0.91245   0.10108   0.00000  Uiso   1.00
S1790  S     0.38454   0.92474   0.12767   0.00000  Uiso   1.00
S1791  S     0.38454   0.92474   0.07450   0.00000  Uiso   1.00
W1792  W     0.37221   0.94932   0.10108   0.00000  Uiso   1.00
S1793  S     0.37838   0.96162   0.12767   0.00000  Uiso   1.00
S1794  S     0.37838   0.96162   0.07450   0.00000  Uiso   1.00
W1795  W     0.53873   0.02746   0.10108   0.00000  Uiso   1.00
S1796  S     0.54490   0.03975   0.12767   0.00000  Uiso   1.00
S1797  S     0.54490   0.03975   0.07450   0.00000  Uiso   1.00
W1798  W     0.53257   0.06433   0.10108   0.00000  Uiso   1.00
S1799  S     0.53873   0.07662   0.12767   0.00000  Uiso   1.00
S1800  S     0.53873   0.07662   0.07450   0.00000  Uiso   1.00
W1801  W     0.52640   0.10120   0.10108   0.00000  Uiso   1.00
S1802  S     0.53257   0.11350   0.12767   0.00000  Uiso   1.00
S1803  S     0.53257   0.11350   0.07450   0.00000  Uiso   1.00
W1804  W     0.52023   0.13808   0.10108   0.00000  Uiso   1.00
S1805  S     0.52640   0.15037   0.12767   0.00000  Uiso   1.00
S1806  S     0.52640   0.15037   0.07450   0.00000  Uiso   1.00
W1807  W     0.51406   0.17495   0.10108   0.00000  Uiso   1.00
S1808  S     0.52023   0.18725   0.12767   0.00000  Uiso   1.00
S1809  S     0.52023   0.18725   0.07450   0.00000  Uiso   1.00
W1810  W     0.50789   0.21183   0.10108   0.00000  Uiso   1.00
S1811  S     0.51406   0.22412   0.12767   0.00000  Uiso   1.00
S1812  S     0.51406   0.22412   0.07450   0.00000  Uiso   1.00
W1813  W     0.50173   0.24870   0.10108   0.00000  Uiso   1.00
S1814  S     0.50789   0.26100   0.12767   0.00000  Uiso   1.00
S1815  S     0.50789   0.26100   0.07450   0.00000  Uiso   1.00
W1816  W     0.49556   0.28558   0.10108   0.00000  Uiso   1.00
S1817  S     0.50173   0.29787   0.12767   0.00000  Uiso   1.00
S1818  S     0.50173   0.29787   0.07450   0.00000  Uiso   1.00
W1819  W     0.48939   0.32245   0.10108   0.00000  Uiso   1.00
S1820  S     0.49556   0.33474   0.12767   0.00000  Uiso   1.00
S1821  S     0.49556   0.33474   0.07450   0.00000  Uiso   1.00
W1822  W     0.48322   0.35933   0.10108   0.00000  Uiso   1.00
S1823  S     0.48939   0.37162   0.12767   0.00000  Uiso   1.00
S1824  S     0.48939   0.37162   0.07450   0.00000  Uiso   1.00
W1825  W     0.47706   0.39620   0.10108   0.00000  Uiso   1.00
S1826  S     0.48322   0.40849   0.12767   0.00000  Uiso   1.00
S1827  S     0.48322   0.40849   0.07450   0.00000  Uiso   1.00
W1828  W     0.47089   0.43308   0.10108   0.00000  Uiso   1.00
S1829  S     0.47706   0.44537   0.12767   0.00000  Uiso   1.00
S1830  S     0.47706   0.44537   0.07450   0.00000  Uiso   1.00
W1831  W     0.46472   0.46995   0.10108   0.00000  Uiso   1.00
S1832  S     0.47089   0.48224   0.12767   0.00000  Uiso   1.00
S1833  S     0.47089   0.48224   0.07450   0.00000  Uiso   1.00
W1834  W     0.45855   0.50683   0.10108   0.00000  Uiso   1.00
S1835  S     0.46472   0.51912   0.12767   0.00000  Uiso   1.00
S1836  S     0.46472   0.51912   0.07450   0.00000  Uiso   1.00
W1837  W     0.45239   0.54370   0.10108   0.00000  Uiso   1.00
S1838  S     0.45855   0.55599   0.12767   0.00000  Uiso   1.00
S1839  S     0.45855   0.55599   0.07450   0.00000  Uiso   1.00
W1840  W     0.44622   0.58058   0.10108   0.00000  Uiso   1.00
S1841  S     0.45239   0.59287   0.12767   0.00000  Uiso   1.00
S1842  S     0.45239   0.59287   0.07450   0.00000  Uiso   1.00
W1843  W     0.44005   0.61745   0.10108   0.00000  Uiso   1.00
S1844  S     0.44622   0.62974   0.12767   0.00000  Uiso   1.00
S1845  S     0.44622   0.62974   0.07450   0.00000  Uiso   1.00
W1846  W     0.43388   0.65433   0.10108   0.00000  Uiso   1.00
S1847  S     0.44005   0.66662   0.12767   0.00000  Uiso   1.00
S1848  S     0.44005   0.66662   0.07450   0.00000  Uiso   1.00
W1849  W     0.42772   0.69120   0.10108   0.00000  Uiso   1.00
S1850  S     0.43388   0.70349   0.12767   0.00000  Uiso   1.00
S1851  S     0.43388   0.70349   0.07450   0.00000  Uiso   1.00
W1852  W     0.42155   0.72808   0.10108   0.00000  Uiso   1.00
S1853  S     0.42772   0.74037   0.12767   0.00000  Uiso   1.00
S1854  S     0.42772   0.74037   0.07450   0.00000  Uiso   1.00
W1855  W     0.41538   0.76495   0.10108   0.00000  Uiso   1.00
S1856  S     0.42155   0.77724   0.12767   0.00000  Uiso   1.00
S1857  S     0.42155   0.77724   0.07450   0.00000  Uiso   1.00
W1858  W     0.40921   0.80183   0.10108   0.00000  Uiso   1.00
S1859  S     0.41538   0.81412   0.12767   0.00000  Uiso   1.00
S1860  S     0.41538   0.81412   0.07450   0.00000  Uiso   1.00
W1861  W     0.40305   0.83870   0.10108   0.00000  Uiso   1.00
S1862  S     0.40921   0.85099   0.12767   0.00000  Uiso   1.00
S1863  S     0.40921   0.85099   0.07450   0.00000  Uiso   1.00
W1864  W     0.39688   0.87558   0.10108   0.00000  Uiso   1.00
S1865  S     0.40305   0.88787   0.12767   0.00000  Uiso   1.00
S1866  S     0.40305   0.88787   0.07450   0.00000  Uiso   1.00
W1867  W     0.39071   0.91245   0.10108   0.00000  Uiso   1.00
S1868  S     0.39688   0.92474   0.12767   0.00000  Uiso   1.00
S1869  S     0.39688   0.92474   0.07450   0.00000  Uiso   1.00
W1870  W     0.38454   0.94932   0.10108   0.00000  Uiso   1.00
S1871  S     0.39071   0.96162   0.12767   0.00000  Uiso   1.00
S1872  S     0.39071   0.96162   0.07450   0.00000  Uiso   1.00
W1873  W     0.55107   0.02746   0.10108   0.00000  Uiso   1.00
S1874  S     0.55724   0.03975   0.12767   0.00000  Uiso   1.00
S1875  S     0.55724   0.03975   0.07450   0.00000  Uiso   1.00
W1876  W     0.54490   0.06433   0.10108   0.00000  Uiso   1.00
S1877  S     0.55107   0.07662   0.12767   0.00000  Uiso   1.00
S1878  S     0.55107   0.07662   0.07450   0.00000  Uiso   1.00
W1879  W     0.53873   0.10120   0.10108   0.00000  Uiso   1.00
S1880  S     0.54490   0.11350   0.12767   0.00000  Uiso   1.00
S1881  S     0.54490   0.11350   0.07450   0.00000  Uiso   1.00
W1882  W     0.53257   0.13808   0.10108   0.00000  Uiso   1.00
S1883  S     0.53342   0.16941   0.12471   0.00000  Uiso   1.00
S1884  S     0.53371   0.16704   0.07179   0.00000  Uiso   1.00
W1885  W     0.52640   0.17495   0.10108   0.00000  Uiso   1.00
W1888  W     0.52023   0.21183   0.10108   0.00000  Uiso   1.00
S1889  S     0.52640   0.22412   0.12767   0.00000  Uiso   1.00
S1890  S     0.52640   0.22412   0.07450   0.00000  Uiso   1.00
W1891  W     0.51406   0.24870   0.10108   0.00000  Uiso   1.00
S1892  S     0.52023   0.26100   0.12767   0.00000  Uiso   1.00
S1893  S     0.52023   0.26100   0.07450   0.00000  Uiso   1.00
W1894  W     0.50789   0.28558   0.10108   0.00000  Uiso   1.00
S1895  S     0.51406   0.29787   0.12767   0.00000  Uiso   1.00
S1896  S     0.51406   0.29787   0.07450   0.00000  Uiso   1.00
W1897  W     0.50173   0.32245   0.10108   0.00000  Uiso   1.00
S1898  S     0.50789   0.33474   0.12767   0.00000  Uiso   1.00
S1899  S     0.50789   0.33474   0.07450   0.00000  Uiso   1.00
W1900  W     0.49556   0.35933   0.10108   0.00000  Uiso   1.00
S1901  S     0.50173   0.37162   0.12767   0.00000  Uiso   1.00
S1902  S     0.50173   0.37162   0.07450   0.00000  Uiso   1.00
W1903  W     0.48939   0.39620   0.10108   0.00000  Uiso   1.00
S1904  S     0.49556   0.40849   0.12767   0.00000  Uiso   1.00
S1905  S     0.49556   0.40849   0.07450   0.00000  Uiso   1.00
W1906  W     0.48322   0.43308   0.10108   0.00000  Uiso   1.00
S1907  S     0.48939   0.44537   0.12767   0.00000  Uiso   1.00
S1908  S     0.48939   0.44537   0.07450   0.00000  Uiso   1.00
W1909  W     0.47706   0.46995   0.10108   0.00000  Uiso   1.00
S1910  S     0.48322   0.48224   0.12767   0.00000  Uiso   1.00
S1911  S     0.48322   0.48224   0.07450   0.00000  Uiso   1.00
W1912  W     0.47089   0.50683   0.10108   0.00000  Uiso   1.00
S1913  S     0.47706   0.51912   0.12767   0.00000  Uiso   1.00
S1914  S     0.47706   0.51912   0.07450   0.00000  Uiso   1.00
W1915  W     0.46472   0.54370   0.10108   0.00000  Uiso   1.00
S1916  S     0.47089   0.55599   0.12767   0.00000  Uiso   1.00
S1917  S     0.47089   0.55599   0.07450   0.00000  Uiso   1.00
W1918  W     0.45855   0.58058   0.10108   0.00000  Uiso   1.00
S1919  S     0.46472   0.59287   0.12767   0.00000  Uiso   1.00
S1920  S     0.46472   0.59287   0.07450   0.00000  Uiso   1.00
W1921  W     0.45239   0.61745   0.10108   0.00000  Uiso   1.00
S1922  S     0.45855   0.62974   0.12767   0.00000  Uiso   1.00
S1923  S     0.45855   0.62974   0.07450   0.00000  Uiso   1.00
W1924  W     0.44622   0.65433   0.10108   0.00000  Uiso   1.00
S1925  S     0.45239   0.66662   0.12767   0.00000  Uiso   1.00
S1926  S     0.45239   0.66662   0.07450   0.00000  Uiso   1.00
W1927  W     0.44005   0.69120   0.10108   0.00000  Uiso   1.00
S1928  S     0.44622   0.70349   0.12767   0.00000  Uiso   1.00
S1929  S     0.44622   0.70349   0.07450   0.00000  Uiso   1.00
W1930  W     0.43388   0.72808   0.10108   0.00000  Uiso   1.00
S1931  S     0.44005   0.74037   0.12767   0.00000  Uiso   1.00
S1932  S     0.44005   0.74037   0.07450   0.00000  Uiso   1.00
W1933  W     0.42772   0.76495   0.10108   0.00000  Uiso   1.00
S1934  S     0.43388   0.77724   0.12767   0.00000  Uiso   1.00
S1935  S     0.43388   0.77724   0.07450   0.00000  Uiso   1.00
W1936  W     0.42155   0.80183   0.10108   0.00000  Uiso   1.00
W1939  W     0.41538   0.83870   0.10108   0.00000  Uiso   1.00
S1940  S     0.42590   0.82937   0.12827   0.00000  Uiso   1.00
S1941  S     0.42584   0.82925   0.07510   0.00000  Uiso   1.00
W1942  W     0.40921   0.87558   0.10108   0.00000  Uiso   1.00
S1943  S     0.41538   0.88787   0.12767   0.00000  Uiso   1.00
S1944  S     0.41538   0.88787   0.07450   0.00000  Uiso   1.00
W1945  W     0.40305   0.91245   0.10108   0.00000  Uiso   1.00
S1946  S     0.40921   0.92474   0.12767   0.00000  Uiso   1.00
S1947  S     0.40921   0.92474   0.07450   0.00000  Uiso   1.00
W1948  W     0.39688   0.94932   0.10108   0.00000  Uiso   1.00
S1949  S     0.40305   0.96162   0.12767   0.00000  Uiso   1.00
S1950  S     0.40305   0.96162   0.07450   0.00000  Uiso   1.00
W1951  W     0.56340   0.02746   0.10108   0.00000  Uiso   1.00
S1952  S     0.56957   0.03975   0.12767   0.00000  Uiso   1.00
S1953  S     0.56957   0.03975   0.07450   0.00000  Uiso   1.00
W1954  W     0.55724   0.06433   0.10108   0.00000  Uiso   1.00
S1955  S     0.56340   0.07662   0.12767   0.00000  Uiso   1.00
S1956  S     0.56340   0.07662   0.07450   0.00000  Uiso   1.00
W1957  W     0.55107   0.10120   0.10108   0.00000  Uiso   1.00
S1958  S     0.55724   0.11350   0.12767   0.00000  Uiso   1.00
S1959  S     0.55724   0.11350   0.07450   0.00000  Uiso   1.00
W1960  W     0.54054   0.15175   0.09878   0.00000  Uiso   1.00
S1961  S     0.55107   0.15037   0.12767   0.00000  Uiso   1.00
S1962  S     0.55107   0.15037   0.07450   0.00000  Uiso   1.00
S1964  S     0.54490   0.18725   0.12767   0.00000  Uiso   1.00
S1965  S     0.54490   0.18725   0.07450   0.00000  Uiso   1.00
W1966  W     0.53331   0.19493   0.10240   0.00000  Uiso   1.00
S1967  S     0.53837   0.22160   0.12771   0.00000  Uiso   1.00
S1968  S     0.53873   0.22412   0.07450   0.00000  Uiso   1.00
W1969  W     0.52640   0.24870   0.10108   0.00000  Uiso   1.00
S1970  S     0.53257   0.26100   0.12767   0.00000  Uiso   1.00
S1971  S     0.53257   0.26100   0.07450   0.00000  Uiso   1.00
W1972  W     0.52023   0.28558   0.10108   0.00000  Uiso   1.00
S1973  S     0.52640   0.29787   0.12767   0.00000  Uiso   1.00
S1974  S     0.52640   0.29787   0.07450   0.00000  Uiso   1.00
W1975  W     0.51406   0.32245   0.10108   0.00000  Uiso   1.00
S1976  S     0.52023   0.33474   0.12767   0.00000  Uiso   1.00
S1977  S     0.52023   0.33474   0.07450   0.00000  Uiso   1.00
W1978  W     0.50789   0.35933   0.10108   0.00000  Uiso   1.00
S1979  S     0.51406   0.37162   0.12767   0.00000  Uiso   1.00
S1980  S     0.51406   0.37162   0.07450   0.00000  Uiso   1.00
W1981  W     0.50173   0.39620   0.10108   0.00000  Uiso   1.00
S1982  S     0.50789   0.40849   0.12767   0.00000  Uiso   1.00
S1983  S     0.50789   0.40849   0.07450   0.00000  Uiso   1.00
W1984  W     0.49556   0.43308   0.10108   0.00000  Uiso   1.00
S1985  S     0.50173   0.44537   0.12767   0.00000  Uiso   1.00
S1986  S     0.50173   0.44537   0.07450   0.00000  Uiso   1.00
W1987  W     0.48939   0.46995   0.10108   0.00000  Uiso   1.00
S1988  S     0.49556   0.48224   0.12767   0.00000  Uiso   1.00
S1989  S     0.49556   0.48224   0.07450   0.00000  Uiso   1.00
W1990  W     0.48322   0.50683   0.10108   0.00000  Uiso   1.00
S1991  S     0.48939   0.51912   0.12767   0.00000  Uiso   1.00
S1992  S     0.48939   0.51912   0.07450   0.00000  Uiso   1.00
W1993  W     0.47706   0.54370   0.10108   0.00000  Uiso   1.00
S1994  S     0.48322   0.55599   0.12767   0.00000  Uiso   1.00
S1995  S     0.48322   0.55599   0.07450   0.00000  Uiso   1.00
W1996  W     0.47089   0.58058   0.10108   0.00000  Uiso   1.00
S1997  S     0.47706   0.59287   0.12767   0.00000  Uiso   1.00
S1998  S     0.47706   0.59287   0.07450   0.00000  Uiso   1.00
W1999  W     0.46472   0.61745   0.10108   0.00000  Uiso   1.00
S2000  S     0.47089   0.62974   0.12767   0.00000  Uiso   1.00
S2001  S     0.47089   0.62974   0.07450   0.00000  Uiso   1.00
W2002  W     0.45855   0.65433   0.10108   0.00000  Uiso   1.00
S2003  S     0.46472   0.66662   0.12767   0.00000  Uiso   1.00
S2004  S     0.46472   0.66662   0.07450   0.00000  Uiso   1.00
W2005  W     0.45239   0.69120   0.10108   0.00000  Uiso   1.00
S2006  S     0.45855   0.70349   0.12767   0.00000  Uiso   1.00
S2007  S     0.45855   0.70349   0.07450   0.00000  Uiso   1.00
W2008  W     0.44622   0.72808   0.10108   0.00000  Uiso   1.00
S2009  S     0.45239   0.74037   0.12767   0.00000  Uiso   1.00
S2010  S     0.45239   0.74037   0.07450   0.00000  Uiso   1.00
W2011  W     0.44005   0.76495   0.10108   0.00000  Uiso   1.00
S2012  S     0.44622   0.77724   0.12767   0.00000  Uiso   1.00
S2013  S     0.44622   0.77724   0.07450   0.00000  Uiso   1.00
W2014  W     0.43214   0.80434   0.10094   0.00000  Uiso   1.00
S2015  S     0.44005   0.81412   0.12767   0.00000  Uiso   1.00
S2016  S     0.44005   0.81412   0.07450   0.00000  Uiso   1.00
S2018  S     0.43346   0.84426   0.12775   0.00000  Uiso   1.00
S2019  S     0.43406   0.84411   0.07462   0.00000  Uiso   1.00
W2020  W     0.42347   0.86297   0.10140   0.00000  Uiso   1.00
S2021  S     0.42772   0.88787   0.12767   0.00000  Uiso   1.00
S2022  S     0.42772   0.88787   0.07450   0.00000  Uiso   1.00
W2023  W     0.41538   0.91245   0.10108   0.00000  Uiso   1.00
S2024  S     0.42155   0.92474   0.12767   0.00000  Uiso   1.00
S2025  S     0.42155   0.92474   0.07450   0.00000  Uiso   1.00
W2026  W     0.40921   0.94932   0.10108   0.00000  Uiso   1.00
S2027  S     0.41538   0.96162   0.12767   0.00000  Uiso   1.00
S2028  S     0.41538   0.96162   0.07450   0.00000  Uiso   1.00
W2029  W     0.57691   0.02746   0.10108   0.00000  Uiso   1.00
Se2030 Se    0.58333   0.04025   0.12767   0.00000  Uiso   1.00
Se2031 Se    0.58333   0.04025   0.07450   0.00000  Uiso   1.00
W2032  W     0.57049   0.06584   0.10108   0.00000  Uiso   1.00
Se2033 Se    0.57691   0.07863   0.12767   0.00000  Uiso   1.00
Se2034 Se    0.57691   0.07863   0.07450   0.00000  Uiso   1.00
W2035  W     0.56407   0.10422   0.10108   0.00000  Uiso   1.00
Se2036 Se    0.57049   0.11702   0.12767   0.00000  Uiso   1.00
Se2037 Se    0.57049   0.11702   0.07450   0.00000  Uiso   1.00
W2038  W     0.55765   0.14261   0.10108   0.00000  Uiso   1.00
Se2039 Se    0.56407   0.15540   0.12767   0.00000  Uiso   1.00
Se2040 Se    0.56407   0.15540   0.07450   0.00000  Uiso   1.00
W2041  W     0.55123   0.18099   0.10108   0.00000  Uiso   1.00
Se2042 Se    0.55765   0.19378   0.12767   0.00000  Uiso   1.00
Se2043 Se    0.55765   0.19378   0.07450   0.00000  Uiso   1.00
W2044  W     0.54481   0.21937   0.10108   0.00000  Uiso   1.00
Se2045 Se    0.55123   0.23217   0.12767   0.00000  Uiso   1.00
Se2046 Se    0.55123   0.23217   0.07450   0.00000  Uiso   1.00
W2047  W     0.53839   0.25776   0.10108   0.00000  Uiso   1.00
Se2048 Se    0.54481   0.27055   0.12767   0.00000  Uiso   1.00
Se2049 Se    0.54481   0.27055   0.07450   0.00000  Uiso   1.00
W2050  W     0.53197   0.29614   0.10108   0.00000  Uiso   1.00
Se2051 Se    0.53839   0.30893   0.12767   0.00000  Uiso   1.00
Se2052 Se    0.53839   0.30893   0.07450   0.00000  Uiso   1.00
W2053  W     0.52555   0.33452   0.10108   0.00000  Uiso   1.00
Se2054 Se    0.53197   0.34732   0.12767   0.00000  Uiso   1.00
Se2055 Se    0.53197   0.34732   0.07450   0.00000  Uiso   1.00
W2056  W     0.51913   0.37291   0.10108   0.00000  Uiso   1.00
Se2057 Se    0.52555   0.38570   0.12767   0.00000  Uiso   1.00
Se2058 Se    0.52555   0.38570   0.07450   0.00000  Uiso   1.00
W2059  W     0.51271   0.41129   0.10108   0.00000  Uiso   1.00
Se2060 Se    0.51913   0.42408   0.12767   0.00000  Uiso   1.00
Se2061 Se    0.51913   0.42408   0.07450   0.00000  Uiso   1.00
W2062  W     0.50629   0.44967   0.10108   0.00000  Uiso   1.00
Se2063 Se    0.51271   0.46247   0.12767   0.00000  Uiso   1.00
Se2064 Se    0.51271   0.46247   0.07450   0.00000  Uiso   1.00
W2065  W     0.49987   0.48806   0.10108   0.00000  Uiso   1.00
Se2066 Se    0.50629   0.50085   0.12767   0.00000  Uiso   1.00
Se2067 Se    0.50629   0.50085   0.07450   0.00000  Uiso   1.00
W2068  W     0.49345   0.52644   0.10108   0.00000  Uiso   1.00
Se2069 Se    0.49987   0.53923   0.12767   0.00000  Uiso   1.00
Se2070 Se    0.49987   0.53923   0.07450   0.00000  Uiso   1.00
W2071  W     0.48703   0.56482   0.10108   0.00000  Uiso   1.00
Se2072 Se    0.49345   0.57762   0.12767   0.00000  Uiso   1.00
Se2073 Se    0.49345   0.57762   0.07450   0.00000  Uiso   1.00
W2074  W     0.48061   0.60321   0.10108   0.00000  Uiso   1.00
Se2075 Se    0.48703   0.61600   0.12767   0.00000  Uiso   1.00
Se2076 Se    0.48703   0.61600   0.07450   0.00000  Uiso   1.00
W2077  W     0.47419   0.64159   0.10108   0.00000  Uiso   1.00
Se2078 Se    0.48061   0.65438   0.12767   0.00000  Uiso   1.00
Se2079 Se    0.48061   0.65438   0.07450   0.00000  Uiso   1.00
W2080  W     0.46777   0.67997   0.10108   0.00000  Uiso   1.00
Se2081 Se    0.47419   0.69277   0.12767   0.00000  Uiso   1.00
Se2082 Se    0.47419   0.69277   0.07450   0.00000  Uiso   1.00
W2083  W     0.46135   0.71836   0.10108   0.00000  Uiso   1.00
Se2084 Se    0.46777   0.73115   0.12767   0.00000  Uiso   1.00
Se2085 Se    0.46777   0.73115   0.07450   0.00000  Uiso   1.00
W2086  W     0.45493   0.75674   0.10108   0.00000  Uiso   1.00
Se2087 Se    0.46135   0.76954   0.12767   0.00000  Uiso   1.00
Se2088 Se    0.46135   0.76954   0.07450   0.00000  Uiso   1.00
W2089  W     0.44851   0.79512   0.10108   0.00000  Uiso   1.00
Se2090 Se    0.45493   0.80792   0.12767   0.00000  Uiso   1.00
Se2091 Se    0.45493   0.80792   0.07450   0.00000  Uiso   1.00
W2092  W     0.44209   0.83351   0.10108   0.00000  Uiso   1.00
Se2093 Se    0.44851   0.84630   0.12767   0.00000  Uiso   1.00
Se2094 Se    0.44851   0.84630   0.07450   0.00000  Uiso   1.00
W2095  W     0.43567   0.87189   0.10108   0.00000  Uiso   1.00
Se2096 Se    0.44209   0.88469   0.12767   0.00000  Uiso   1.00
Se2097 Se    0.44209   0.88469   0.07450   0.00000  Uiso   1.00
W2098  W     0.42925   0.91027   0.10108   0.00000  Uiso   1.00
Se2099 Se    0.43567   0.92307   0.12767   0.00000  Uiso   1.00
Se2100 Se    0.43567   0.92307   0.07450   0.00000  Uiso   1.00
W2101  W     0.42283   0.94866   0.10108   0.00000  Uiso   1.00
Se2102 Se    0.42925   0.96145   0.12767   0.00000  Uiso   1.00
Se2103 Se    0.42925   0.96145   0.07450   0.00000  Uiso   1.00
W2104  W     0.58975   0.02746   0.10108   0.00000  Uiso   1.00
Se2105 Se    0.59617   0.04025   0.12767   0.00000  Uiso   1.00
Se2106 Se    0.59617   0.04025   0.07450   0.00000  Uiso   1.00
W2107  W     0.58333   0.06584   0.10108   0.00000  Uiso   1.00
Se2108 Se    0.58975   0.07863   0.12767   0.00000  Uiso   1.00
Se2109 Se    0.58975   0.07863   0.07450   0.00000  Uiso   1.00
W2110  W     0.57691   0.10422   0.10108   0.00000  Uiso   1.00
Se2111 Se    0.58333   0.11702   0.12767   0.00000  Uiso   1.00
Se2112 Se    0.58333   0.11702   0.07450   0.00000  Uiso   1.00
W2113  W     0.57049   0.14261   0.10108   0.00000  Uiso   1.00
Se2114 Se    0.57691   0.15540   0.12767   0.00000  Uiso   1.00
Se2115 Se    0.57691   0.15540   0.07450   0.00000  Uiso   1.00
W2116  W     0.56407   0.18099   0.10108   0.00000  Uiso   1.00
Se2117 Se    0.57049   0.19378   0.12767   0.00000  Uiso   1.00
Se2118 Se    0.57049   0.19378   0.07450   0.00000  Uiso   1.00
W2119  W     0.55765   0.21937   0.10108   0.00000  Uiso   1.00
Se2120 Se    0.56407   0.23217   0.12767   0.00000  Uiso   1.00
Se2121 Se    0.56407   0.23217   0.07450   0.00000  Uiso   1.00
W2122  W     0.55123   0.25776   0.10108   0.00000  Uiso   1.00
Se2123 Se    0.55765   0.27055   0.12767   0.00000  Uiso   1.00
Se2124 Se    0.55765   0.27055   0.07450   0.00000  Uiso   1.00
W2125  W     0.54481   0.29614   0.10108   0.00000  Uiso   1.00
Se2126 Se    0.55123   0.30893   0.12767   0.00000  Uiso   1.00
Se2127 Se    0.55123   0.30893   0.07450   0.00000  Uiso   1.00
W2128  W     0.53839   0.33452   0.10108   0.00000  Uiso   1.00
Se2129 Se    0.54481   0.34732   0.12767   0.00000  Uiso   1.00
Se2130 Se    0.54481   0.34732   0.07450   0.00000  Uiso   1.00
W2131  W     0.53197   0.37291   0.10108   0.00000  Uiso   1.00
Se2132 Se    0.53839   0.38570   0.12767   0.00000  Uiso   1.00
Se2133 Se    0.53839   0.38570   0.07450   0.00000  Uiso   1.00
W2134  W     0.52555   0.41129   0.10108   0.00000  Uiso   1.00
Se2135 Se    0.53197   0.42408   0.12767   0.00000  Uiso   1.00
Se2136 Se    0.53197   0.42408   0.07450   0.00000  Uiso   1.00
W2137  W     0.51913   0.44967   0.10108   0.00000  Uiso   1.00
Se2138 Se    0.52555   0.46247   0.12767   0.00000  Uiso   1.00
Se2139 Se    0.52555   0.46247   0.07450   0.00000  Uiso   1.00
W2140  W     0.51271   0.48806   0.10108   0.00000  Uiso   1.00
Se2141 Se    0.51913   0.50085   0.12767   0.00000  Uiso   1.00
Se2142 Se    0.51913   0.50085   0.07450   0.00000  Uiso   1.00
W2143  W     0.50629   0.52644   0.10108   0.00000  Uiso   1.00
Se2144 Se    0.51271   0.53923   0.12767   0.00000  Uiso   1.00
Se2145 Se    0.51271   0.53923   0.07450   0.00000  Uiso   1.00
W2146  W     0.49987   0.56482   0.10108   0.00000  Uiso   1.00
Se2147 Se    0.50629   0.57762   0.12767   0.00000  Uiso   1.00
Se2148 Se    0.50629   0.57762   0.07450   0.00000  Uiso   1.00
W2149  W     0.49345   0.60321   0.10108   0.00000  Uiso   1.00
Se2150 Se    0.49987   0.61600   0.12767   0.00000  Uiso   1.00
Se2151 Se    0.49987   0.61600   0.07450   0.00000  Uiso   1.00
W2152  W     0.48703   0.64159   0.10108   0.00000  Uiso   1.00
Se2153 Se    0.49345   0.65438   0.12767   0.00000  Uiso   1.00
Se2154 Se    0.49345   0.65438   0.07450   0.00000  Uiso   1.00
W2155  W     0.48061   0.67997   0.10108   0.00000  Uiso   1.00
Se2156 Se    0.48703   0.69277   0.12767   0.00000  Uiso   1.00
Se2157 Se    0.48703   0.69277   0.07450   0.00000  Uiso   1.00
W2158  W     0.47419   0.71836   0.10108   0.00000  Uiso   1.00
Se2159 Se    0.48061   0.73115   0.12767   0.00000  Uiso   1.00
Se2160 Se    0.48061   0.73115   0.07450   0.00000  Uiso   1.00
W2161  W     0.46777   0.75674   0.10108   0.00000  Uiso   1.00
Se2162 Se    0.47419   0.76954   0.12767   0.00000  Uiso   1.00
Se2163 Se    0.47419   0.76954   0.07450   0.00000  Uiso   1.00
W2164  W     0.46135   0.79512   0.10108   0.00000  Uiso   1.00
Se2165 Se    0.46777   0.80792   0.12767   0.00000  Uiso   1.00
Se2166 Se    0.46777   0.80792   0.07450   0.00000  Uiso   1.00
W2167  W     0.45493   0.83351   0.10108   0.00000  Uiso   1.00
Se2168 Se    0.46135   0.84630   0.12767   0.00000  Uiso   1.00
Se2169 Se    0.46135   0.84630   0.07450   0.00000  Uiso   1.00
W2170  W     0.44851   0.87189   0.10108   0.00000  Uiso   1.00
Se2171 Se    0.45493   0.88469   0.12767   0.00000  Uiso   1.00
Se2172 Se    0.45493   0.88469   0.07450   0.00000  Uiso   1.00
W2173  W     0.44209   0.91027   0.10108   0.00000  Uiso   1.00
Se2174 Se    0.44851   0.92307   0.12767   0.00000  Uiso   1.00
Se2175 Se    0.44851   0.92307   0.07450   0.00000  Uiso   1.00
W2176  W     0.43567   0.94866   0.10108   0.00000  Uiso   1.00
Se2177 Se    0.44209   0.96145   0.12767   0.00000  Uiso   1.00
Se2178 Se    0.44209   0.96145   0.07450   0.00000  Uiso   1.00
W2179  W     0.60259   0.02746   0.10108   0.00000  Uiso   1.00
Se2180 Se    0.60901   0.04025   0.12767   0.00000  Uiso   1.00
Se2181 Se    0.60901   0.04025   0.07450   0.00000  Uiso   1.00
W2182  W     0.59617   0.06584   0.10108   0.00000  Uiso   1.00
Se2183 Se    0.60259   0.07863   0.12767   0.00000  Uiso   1.00
Se2184 Se    0.60259   0.07863   0.07450   0.00000  Uiso   1.00
W2185  W     0.58975   0.10422   0.10108   0.00000  Uiso   1.00
Se2186 Se    0.59617   0.11702   0.12767   0.00000  Uiso   1.00
Se2187 Se    0.59617   0.11702   0.07450   0.00000  Uiso   1.00
W2188  W     0.58333   0.14261   0.10108   0.00000  Uiso   1.00
Se2189 Se    0.58975   0.15540   0.12767   0.00000  Uiso   1.00
Se2190 Se    0.58975   0.15540   0.07450   0.00000  Uiso   1.00
W2191  W     0.57691   0.18099   0.10108   0.00000  Uiso   1.00
Se2192 Se    0.58333   0.19378   0.12767   0.00000  Uiso   1.00
Se2193 Se    0.58333   0.19378   0.07450   0.00000  Uiso   1.00
W2194  W     0.57049   0.21937   0.10108   0.00000  Uiso   1.00
Se2195 Se    0.57691   0.23217   0.12767   0.00000  Uiso   1.00
Se2196 Se    0.57691   0.23217   0.07450   0.00000  Uiso   1.00
W2197  W     0.56407   0.25776   0.10108   0.00000  Uiso   1.00
Se2198 Se    0.57049   0.27055   0.12767   0.00000  Uiso   1.00
Se2199 Se    0.57049   0.27055   0.07450   0.00000  Uiso   1.00
W2200  W     0.55765   0.29614   0.10108   0.00000  Uiso   1.00
Se2201 Se    0.56407   0.30893   0.12767   0.00000  Uiso   1.00
Se2202 Se    0.56407   0.30893   0.07450   0.00000  Uiso   1.00
W2203  W     0.55123   0.33452   0.10108   0.00000  Uiso   1.00
Se2204 Se    0.55765   0.34732   0.12767   0.00000  Uiso   1.00
Se2205 Se    0.55765   0.34732   0.07450   0.00000  Uiso   1.00
W2206  W     0.54481   0.37291   0.10108   0.00000  Uiso   1.00
Se2207 Se    0.55123   0.38570   0.12767   0.00000  Uiso   1.00
Se2208 Se    0.55123   0.38570   0.07450   0.00000  Uiso   1.00
W2209  W     0.53839   0.41129   0.10108   0.00000  Uiso   1.00
Se2210 Se    0.54481   0.42408   0.12767   0.00000  Uiso   1.00
Se2211 Se    0.54481   0.42408   0.07450   0.00000  Uiso   1.00
W2212  W     0.53197   0.44967   0.10108   0.00000  Uiso   1.00
Se2213 Se    0.53839   0.46247   0.12767   0.00000  Uiso   1.00
Se2214 Se    0.53839   0.46247   0.07450   0.00000  Uiso   1.00
W2215  W     0.52555   0.48806   0.10108   0.00000  Uiso   1.00
Se2216 Se    0.53197   0.50085   0.12767   0.00000  Uiso   1.00
Se2217 Se    0.53197   0.50085   0.07450   0.00000  Uiso   1.00
W2218  W     0.51913   0.52644   0.10108   0.00000  Uiso   1.00
Se2219 Se    0.52555   0.53923   0.12767   0.00000  Uiso   1.00
Se2220 Se    0.52555   0.53923   0.07450   0.00000  Uiso   1.00
W2221  W     0.51271   0.56482   0.10108   0.00000  Uiso   1.00
Se2222 Se    0.51913   0.57762   0.12767   0.00000  Uiso   1.00
Se2223 Se    0.51913   0.57762   0.07450   0.00000  Uiso   1.00
W2224  W     0.50629   0.60321   0.10108   0.00000  Uiso   1.00
Se2225 Se    0.51271   0.61600   0.12767   0.00000  Uiso   1.00
Se2226 Se    0.51271   0.61600   0.07450   0.00000  Uiso   1.00
W2227  W     0.49987   0.64159   0.10108   0.00000  Uiso   1.00
Se2228 Se    0.50629   0.65438   0.12767   0.00000  Uiso   1.00
Se2229 Se    0.50629   0.65438   0.07450   0.00000  Uiso   1.00
W2230  W     0.49345   0.67997   0.10108   0.00000  Uiso   1.00
Se2231 Se    0.49987   0.69277   0.12767   0.00000  Uiso   1.00
Se2232 Se    0.49987   0.69277   0.07450   0.00000  Uiso   1.00
W2233  W     0.48703   0.71836   0.10108   0.00000  Uiso   1.00
Se2234 Se    0.49345   0.73115   0.12767   0.00000  Uiso   1.00
Se2235 Se    0.49345   0.73115   0.07450   0.00000  Uiso   1.00
W2236  W     0.48061   0.75674   0.10108   0.00000  Uiso   1.00
Se2237 Se    0.48703   0.76954   0.12767   0.00000  Uiso   1.00
Se2238 Se    0.48703   0.76954   0.07450   0.00000  Uiso   1.00
W2239  W     0.47419   0.79512   0.10108   0.00000  Uiso   1.00
Se2240 Se    0.48061   0.80792   0.12767   0.00000  Uiso   1.00
Se2241 Se    0.48061   0.80792   0.07450   0.00000  Uiso   1.00
W2242  W     0.46777   0.83351   0.10108   0.00000  Uiso   1.00
Se2243 Se    0.47419   0.84630   0.12767   0.00000  Uiso   1.00
Se2244 Se    0.47419   0.84630   0.07450   0.00000  Uiso   1.00
W2245  W     0.46135   0.87189   0.10108   0.00000  Uiso   1.00
Se2246 Se    0.46777   0.88469   0.12767   0.00000  Uiso   1.00
Se2247 Se    0.46777   0.88469   0.07450   0.00000  Uiso   1.00
W2248  W     0.45493   0.91027   0.10108   0.00000  Uiso   1.00
Se2249 Se    0.46135   0.92307   0.12767   0.00000  Uiso   1.00
Se2250 Se    0.46135   0.92307   0.07450   0.00000  Uiso   1.00
W2251  W     0.44851   0.94866   0.10108   0.00000  Uiso   1.00
Se2252 Se    0.45493   0.96145   0.12767   0.00000  Uiso   1.00
Se2253 Se    0.45493   0.96145   0.07450   0.00000  Uiso   1.00
W2254  W     0.61543   0.02746   0.10108   0.00000  Uiso   1.00
Se2255 Se    0.62185   0.04025   0.12767   0.00000  Uiso   1.00
Se2256 Se    0.62185   0.04025   0.07450   0.00000  Uiso   1.00
W2257  W     0.60901   0.06584   0.10108   0.00000  Uiso   1.00
Se2258 Se    0.61543   0.07863   0.12767   0.00000  Uiso   1.00
Se2259 Se    0.61543   0.07863   0.07450   0.00000  Uiso   1.00
W2260  W     0.60259   0.10422   0.10108   0.00000  Uiso   1.00
Se2261 Se    0.60901   0.11702   0.12767   0.00000  Uiso   1.00
Se2262 Se    0.60901   0.11702   0.07450   0.00000  Uiso   1.00
W2263  W     0.59617   0.14261   0.10108   0.00000  Uiso   1.00
Se2264 Se    0.60259   0.15540   0.12767   0.00000  Uiso   1.00
Se2265 Se    0.60259   0.15540   0.07450   0.00000  Uiso   1.00
W2266  W     0.58975   0.18099   0.10108   0.00000  Uiso   1.00
Se2267 Se    0.59617   0.19378   0.12767   0.00000  Uiso   1.00
Se2268 Se    0.59617   0.19378   0.07450   0.00000  Uiso   1.00
W2269  W     0.58333   0.21937   0.10108   0.00000  Uiso   1.00
Se2270 Se    0.58975   0.23217   0.12767   0.00000  Uiso   1.00
Se2271 Se    0.58975   0.23217   0.07450   0.00000  Uiso   1.00
W2272  W     0.57691   0.25776   0.10108   0.00000  Uiso   1.00
Se2273 Se    0.58333   0.27055   0.12767   0.00000  Uiso   1.00
Se2274 Se    0.58333   0.27055   0.07450   0.00000  Uiso   1.00
W2275  W     0.57049   0.29614   0.10108   0.00000  Uiso   1.00
Se2276 Se    0.57691   0.30893   0.12767   0.00000  Uiso   1.00
Se2277 Se    0.57691   0.30893   0.07450   0.00000  Uiso   1.00
W2278  W     0.56407   0.33452   0.10108   0.00000  Uiso   1.00
Se2279 Se    0.57049   0.34732   0.12767   0.00000  Uiso   1.00
Se2280 Se    0.57049   0.34732   0.07450   0.00000  Uiso   1.00
W2281  W     0.55765   0.37291   0.10108   0.00000  Uiso   1.00
Se2282 Se    0.56407   0.38570   0.12767   0.00000  Uiso   1.00
Se2283 Se    0.56407   0.38570   0.07450   0.00000  Uiso   1.00
W2284  W     0.55123   0.41129   0.10108   0.00000  Uiso   1.00
Se2285 Se    0.55765   0.42408   0.12767   0.00000  Uiso   1.00
Se2286 Se    0.55765   0.42408   0.07450   0.00000  Uiso   1.00
W2287  W     0.54481   0.44967   0.10108   0.00000  Uiso   1.00
Se2288 Se    0.55123   0.46247   0.12767   0.00000  Uiso   1.00
Se2289 Se    0.55123   0.46247   0.07450   0.00000  Uiso   1.00
W2290  W     0.53839   0.48806   0.10108   0.00000  Uiso   1.00
Se2291 Se    0.54481   0.50085   0.12767   0.00000  Uiso   1.00
Se2292 Se    0.54481   0.50085   0.07450   0.00000  Uiso   1.00
W2293  W     0.53197   0.52644   0.10108   0.00000  Uiso   1.00
Se2294 Se    0.53839   0.53923   0.12767   0.00000  Uiso   1.00
Se2295 Se    0.53839   0.53923   0.07450   0.00000  Uiso   1.00
W2296  W     0.52555   0.56482   0.10108   0.00000  Uiso   1.00
Se2297 Se    0.53197   0.57762   0.12767   0.00000  Uiso   1.00
Se2298 Se    0.53197   0.57762   0.07450   0.00000  Uiso   1.00
W2299  W     0.51913   0.60321   0.10108   0.00000  Uiso   1.00
Se2300 Se    0.52555   0.61600   0.12767   0.00000  Uiso   1.00
Se2301 Se    0.52555   0.61600   0.07450   0.00000  Uiso   1.00
W2302  W     0.51271   0.64159   0.10108   0.00000  Uiso   1.00
Se2303 Se    0.51913   0.65438   0.12767   0.00000  Uiso   1.00
Se2304 Se    0.51913   0.65438   0.07450   0.00000  Uiso   1.00
W2305  W     0.50629   0.67997   0.10108   0.00000  Uiso   1.00
Se2306 Se    0.51271   0.69277   0.12767   0.00000  Uiso   1.00
Se2307 Se    0.51271   0.69277   0.07450   0.00000  Uiso   1.00
W2308  W     0.49987   0.71836   0.10108   0.00000  Uiso   1.00
Se2309 Se    0.50629   0.73115   0.12767   0.00000  Uiso   1.00
Se2310 Se    0.50629   0.73115   0.07450   0.00000  Uiso   1.00
W2311  W     0.49345   0.75674   0.10108   0.00000  Uiso   1.00
Se2312 Se    0.49987   0.76954   0.12767   0.00000  Uiso   1.00
Se2313 Se    0.49987   0.76954   0.07450   0.00000  Uiso   1.00
W2314  W     0.48703   0.79512   0.10108   0.00000  Uiso   1.00
Se2315 Se    0.49345   0.80792   0.12767   0.00000  Uiso   1.00
Se2316 Se    0.49345   0.80792   0.07450   0.00000  Uiso   1.00
W2317  W     0.48061   0.83351   0.10108   0.00000  Uiso   1.00
Se2318 Se    0.48703   0.84630   0.12767   0.00000  Uiso   1.00
Se2319 Se    0.48703   0.84630   0.07450   0.00000  Uiso   1.00
W2320  W     0.47419   0.87189   0.10108   0.00000  Uiso   1.00
Se2321 Se    0.48061   0.88469   0.12767   0.00000  Uiso   1.00
Se2322 Se    0.48061   0.88469   0.07450   0.00000  Uiso   1.00
W2323  W     0.46777   0.91027   0.10108   0.00000  Uiso   1.00
Se2324 Se    0.47419   0.92307   0.12767   0.00000  Uiso   1.00
Se2325 Se    0.47419   0.92307   0.07450   0.00000  Uiso   1.00
W2326  W     0.46135   0.94866   0.10108   0.00000  Uiso   1.00
Se2327 Se    0.46777   0.96145   0.12767   0.00000  Uiso   1.00
Se2328 Se    0.46777   0.96145   0.07450   0.00000  Uiso   1.00
W2329  W     0.62827   0.02746   0.10108   0.00000  Uiso   1.00
Se2330 Se    0.63469   0.04025   0.12767   0.00000  Uiso   1.00
Se2331 Se    0.63469   0.04025   0.07450   0.00000  Uiso   1.00
W2332  W     0.62185   0.06584   0.10108   0.00000  Uiso   1.00
Se2333 Se    0.62827   0.07863   0.12767   0.00000  Uiso   1.00
Se2334 Se    0.62827   0.07863   0.07450   0.00000  Uiso   1.00
W2335  W     0.61543   0.10422   0.10108   0.00000  Uiso   1.00
Se2336 Se    0.62185   0.11702   0.12767   0.00000  Uiso   1.00
Se2337 Se    0.62185   0.11702   0.07450   0.00000  Uiso   1.00
W2338  W     0.60901   0.14261   0.10108   0.00000  Uiso   1.00
Se2339 Se    0.61543   0.15540   0.12767   0.00000  Uiso   1.00
Se2340 Se    0.61543   0.15540   0.07450   0.00000  Uiso   1.00
W2341  W     0.60259   0.18099   0.10108   0.00000  Uiso   1.00
Se2342 Se    0.60901   0.19378   0.12767   0.00000  Uiso   1.00
Se2343 Se    0.60901   0.19378   0.07450   0.00000  Uiso   1.00
W2344  W     0.59617   0.21937   0.10108   0.00000  Uiso   1.00
Se2345 Se    0.60259   0.23217   0.12767   0.00000  Uiso   1.00
Se2346 Se    0.60259   0.23217   0.07450   0.00000  Uiso   1.00
W2347  W     0.58975   0.25776   0.10108   0.00000  Uiso   1.00
Se2348 Se    0.59617   0.27055   0.12767   0.00000  Uiso   1.00
Se2349 Se    0.59617   0.27055   0.07450   0.00000  Uiso   1.00
W2350  W     0.58333   0.29614   0.10108   0.00000  Uiso   1.00
Se2351 Se    0.58975   0.30893   0.12767   0.00000  Uiso   1.00
Se2352 Se    0.58975   0.30893   0.07450   0.00000  Uiso   1.00
W2353  W     0.57691   0.33452   0.10108   0.00000  Uiso   1.00
Se2354 Se    0.58333   0.34732   0.12767   0.00000  Uiso   1.00
Se2355 Se    0.58333   0.34732   0.07450   0.00000  Uiso   1.00
W2356  W     0.57049   0.37291   0.10108   0.00000  Uiso   1.00
Se2357 Se    0.57691   0.38570   0.12767   0.00000  Uiso   1.00
Se2358 Se    0.57691   0.38570   0.07450   0.00000  Uiso   1.00
W2359  W     0.56407   0.41129   0.10108   0.00000  Uiso   1.00
Se2360 Se    0.57049   0.42408   0.12767   0.00000  Uiso   1.00
Se2361 Se    0.57049   0.42408   0.07450   0.00000  Uiso   1.00
W2362  W     0.55765   0.44967   0.10108   0.00000  Uiso   1.00
Se2363 Se    0.56407   0.46247   0.12767   0.00000  Uiso   1.00
Se2364 Se    0.56407   0.46247   0.07450   0.00000  Uiso   1.00
W2365  W     0.55123   0.48806   0.10108   0.00000  Uiso   1.00
Se2366 Se    0.55765   0.50085   0.12767   0.00000  Uiso   1.00
Se2367 Se    0.55765   0.50085   0.07450   0.00000  Uiso   1.00
W2368  W     0.54481   0.52644   0.10108   0.00000  Uiso   1.00
Se2369 Se    0.55123   0.53923   0.12767   0.00000  Uiso   1.00
Se2370 Se    0.55123   0.53923   0.07450   0.00000  Uiso   1.00
W2371  W     0.53839   0.56482   0.10108   0.00000  Uiso   1.00
Se2372 Se    0.54481   0.57762   0.12767   0.00000  Uiso   1.00
Se2373 Se    0.54481   0.57762   0.07450   0.00000  Uiso   1.00
W2374  W     0.53197   0.60321   0.10108   0.00000  Uiso   1.00
Se2375 Se    0.53839   0.61600   0.12767   0.00000  Uiso   1.00
Se2376 Se    0.53839   0.61600   0.07450   0.00000  Uiso   1.00
W2377  W     0.52555   0.64159   0.10108   0.00000  Uiso   1.00
Se2378 Se    0.53197   0.65438   0.12767   0.00000  Uiso   1.00
Se2379 Se    0.53197   0.65438   0.07450   0.00000  Uiso   1.00
W2380  W     0.51913   0.67997   0.10108   0.00000  Uiso   1.00
Se2381 Se    0.52555   0.69277   0.12767   0.00000  Uiso   1.00
Se2382 Se    0.52555   0.69277   0.07450   0.00000  Uiso   1.00
W2383  W     0.51271   0.71836   0.10108   0.00000  Uiso   1.00
Se2384 Se    0.51913   0.73115   0.12767   0.00000  Uiso   1.00
Se2385 Se    0.51913   0.73115   0.07450   0.00000  Uiso   1.00
W2386  W     0.50629   0.75674   0.10108   0.00000  Uiso   1.00
Se2387 Se    0.51271   0.76954   0.12767   0.00000  Uiso   1.00
Se2388 Se    0.51271   0.76954   0.07450   0.00000  Uiso   1.00
W2389  W     0.49987   0.79512   0.10108   0.00000  Uiso   1.00
Se2390 Se    0.50629   0.80792   0.12767   0.00000  Uiso   1.00
Se2391 Se    0.50629   0.80792   0.07450   0.00000  Uiso   1.00
W2392  W     0.49345   0.83351   0.10108   0.00000  Uiso   1.00
Se2393 Se    0.49987   0.84630   0.12767   0.00000  Uiso   1.00
Se2394 Se    0.49987   0.84630   0.07450   0.00000  Uiso   1.00
W2395  W     0.48703   0.87189   0.10108   0.00000  Uiso   1.00
Se2396 Se    0.49345   0.88469   0.12767   0.00000  Uiso   1.00
Se2397 Se    0.49345   0.88469   0.07450   0.00000  Uiso   1.00
W2398  W     0.48061   0.91027   0.10108   0.00000  Uiso   1.00
Se2399 Se    0.48703   0.92307   0.12767   0.00000  Uiso   1.00
Se2400 Se    0.48703   0.92307   0.07450   0.00000  Uiso   1.00
W2401  W     0.47419   0.94866   0.10108   0.00000  Uiso   1.00
Se2402 Se    0.48061   0.96145   0.12767   0.00000  Uiso   1.00
Se2403 Se    0.48061   0.96145   0.07450   0.00000  Uiso   1.00
W2404  W     0.64111   0.02746   0.10108   0.00000  Uiso   1.00
Se2405 Se    0.64753   0.04025   0.12767   0.00000  Uiso   1.00
Se2406 Se    0.64753   0.04025   0.07450   0.00000  Uiso   1.00
W2407  W     0.63469   0.06584   0.10108   0.00000  Uiso   1.00
Se2408 Se    0.64111   0.07863   0.12767   0.00000  Uiso   1.00
Se2409 Se    0.64111   0.07863   0.07450   0.00000  Uiso   1.00
W2410  W     0.62827   0.10422   0.10108   0.00000  Uiso   1.00
Se2411 Se    0.63469   0.11702   0.12767   0.00000  Uiso   1.00
Se2412 Se    0.63469   0.11702   0.07450   0.00000  Uiso   1.00
W2413  W     0.62185   0.14261   0.10108   0.00000  Uiso   1.00
Se2414 Se    0.62827   0.15540   0.12767   0.00000  Uiso   1.00
Se2415 Se    0.62827   0.15540   0.07450   0.00000  Uiso   1.00
W2416  W     0.61543   0.18099   0.10108   0.00000  Uiso   1.00
Se2417 Se    0.62185   0.19378   0.12767   0.00000  Uiso   1.00
Se2418 Se    0.62185   0.19378   0.07450   0.00000  Uiso   1.00
W2419  W     0.60901   0.21937   0.10108   0.00000  Uiso   1.00
Se2420 Se    0.61543   0.23217   0.12767   0.00000  Uiso   1.00
Se2421 Se    0.61543   0.23217   0.07450   0.00000  Uiso   1.00
W2422  W     0.60259   0.25776   0.10108   0.00000  Uiso   1.00
Se2423 Se    0.60901   0.27055   0.12767   0.00000  Uiso   1.00
Se2424 Se    0.60901   0.27055   0.07450   0.00000  Uiso   1.00
W2425  W     0.59617   0.29614   0.10108   0.00000  Uiso   1.00
Se2426 Se    0.60259   0.30893   0.12767   0.00000  Uiso   1.00
Se2427 Se    0.60259   0.30893   0.07450   0.00000  Uiso   1.00
W2428  W     0.58975   0.33452   0.10108   0.00000  Uiso   1.00
Se2429 Se    0.59617   0.34732   0.12767   0.00000  Uiso   1.00
Se2430 Se    0.59617   0.34732   0.07450   0.00000  Uiso   1.00
W2431  W     0.58333   0.37291   0.10108   0.00000  Uiso   1.00
Se2432 Se    0.58975   0.38570   0.12767   0.00000  Uiso   1.00
Se2433 Se    0.58975   0.38570   0.07450   0.00000  Uiso   1.00
W2434  W     0.57691   0.41129   0.10108   0.00000  Uiso   1.00
Se2435 Se    0.58333   0.42408   0.12767   0.00000  Uiso   1.00
Se2436 Se    0.58333   0.42408   0.07450   0.00000  Uiso   1.00
W2437  W     0.57049   0.44967   0.10108   0.00000  Uiso   1.00
Se2438 Se    0.57691   0.46247   0.12767   0.00000  Uiso   1.00
Se2439 Se    0.57691   0.46247   0.07450   0.00000  Uiso   1.00
W2440  W     0.56407   0.48806   0.10108   0.00000  Uiso   1.00
Se2441 Se    0.57049   0.50085   0.12767   0.00000  Uiso   1.00
Se2442 Se    0.57049   0.50085   0.07450   0.00000  Uiso   1.00
W2443  W     0.55765   0.52644   0.10108   0.00000  Uiso   1.00
Se2444 Se    0.56407   0.53923   0.12767   0.00000  Uiso   1.00
Se2445 Se    0.56407   0.53923   0.07450   0.00000  Uiso   1.00
W2446  W     0.55123   0.56482   0.10108   0.00000  Uiso   1.00
Se2447 Se    0.55765   0.57762   0.12767   0.00000  Uiso   1.00
Se2448 Se    0.55765   0.57762   0.07450   0.00000  Uiso   1.00
W2449  W     0.54481   0.60321   0.10108   0.00000  Uiso   1.00
Se2450 Se    0.55123   0.61600   0.12767   0.00000  Uiso   1.00
Se2451 Se    0.55123   0.61600   0.07450   0.00000  Uiso   1.00
W2452  W     0.53839   0.64159   0.10108   0.00000  Uiso   1.00
Se2453 Se    0.54481   0.65438   0.12767   0.00000  Uiso   1.00
Se2454 Se    0.54481   0.65438   0.07450   0.00000  Uiso   1.00
W2455  W     0.53197   0.67997   0.10108   0.00000  Uiso   1.00
Se2456 Se    0.53839   0.69277   0.12767   0.00000  Uiso   1.00
Se2457 Se    0.53839   0.69277   0.07450   0.00000  Uiso   1.00
W2458  W     0.52555   0.71836   0.10108   0.00000  Uiso   1.00
Se2459 Se    0.53197   0.73115   0.12767   0.00000  Uiso   1.00
Se2460 Se    0.53197   0.73115   0.07450   0.00000  Uiso   1.00
W2461  W     0.51913   0.75674   0.10108   0.00000  Uiso   1.00
Se2462 Se    0.52555   0.76954   0.12767   0.00000  Uiso   1.00
Se2463 Se    0.52555   0.76954   0.07450   0.00000  Uiso   1.00
W2464  W     0.51271   0.79512   0.10108   0.00000  Uiso   1.00
Se2465 Se    0.51913   0.80792   0.12767   0.00000  Uiso   1.00
Se2466 Se    0.51913   0.80792   0.07450   0.00000  Uiso   1.00
W2467  W     0.50629   0.83351   0.10108   0.00000  Uiso   1.00
Se2468 Se    0.51271   0.84630   0.12767   0.00000  Uiso   1.00
Se2469 Se    0.51271   0.84630   0.07450   0.00000  Uiso   1.00
W2470  W     0.49987   0.87189   0.10108   0.00000  Uiso   1.00
Se2471 Se    0.50629   0.88469   0.12767   0.00000  Uiso   1.00
Se2472 Se    0.50629   0.88469   0.07450   0.00000  Uiso   1.00
W2473  W     0.49345   0.91027   0.10108   0.00000  Uiso   1.00
Se2474 Se    0.49987   0.92307   0.12767   0.00000  Uiso   1.00
Se2475 Se    0.49987   0.92307   0.07450   0.00000  Uiso   1.00
W2476  W     0.48703   0.94866   0.10108   0.00000  Uiso   1.00
Se2477 Se    0.49345   0.96145   0.12767   0.00000  Uiso   1.00
Se2478 Se    0.49345   0.96145   0.07450   0.00000  Uiso   1.00
W2479  W     0.65395   0.02746   0.10108   0.00000  Uiso   1.00
Se2480 Se    0.66037   0.04025   0.12767   0.00000  Uiso   1.00
Se2481 Se    0.66037   0.04025   0.07450   0.00000  Uiso   1.00
W2482  W     0.64753   0.06584   0.10108   0.00000  Uiso   1.00
Se2483 Se    0.65395   0.07863   0.12767   0.00000  Uiso   1.00
Se2484 Se    0.65395   0.07863   0.07450   0.00000  Uiso   1.00
W2485  W     0.64111   0.10422   0.10108   0.00000  Uiso   1.00
Se2486 Se    0.64753   0.11702   0.12767   0.00000  Uiso   1.00
Se2487 Se    0.64753   0.11702   0.07450   0.00000  Uiso   1.00
W2488  W     0.63469   0.14261   0.10108   0.00000  Uiso   1.00
Se2489 Se    0.64111   0.15540   0.12767   0.00000  Uiso   1.00
Se2490 Se    0.64111   0.15540   0.07450   0.00000  Uiso   1.00
W2491  W     0.62827   0.18099   0.10108   0.00000  Uiso   1.00
Se2492 Se    0.63469   0.19378   0.12767   0.00000  Uiso   1.00
Se2493 Se    0.63469   0.19378   0.07450   0.00000  Uiso   1.00
W2494  W     0.62185   0.21937   0.10108   0.00000  Uiso   1.00
Se2495 Se    0.62827   0.23217   0.12767   0.00000  Uiso   1.00
Se2496 Se    0.62827   0.23217   0.07450   0.00000  Uiso   1.00
W2497  W     0.61543   0.25776   0.10108   0.00000  Uiso   1.00
Se2498 Se    0.62185   0.27055   0.12767   0.00000  Uiso   1.00
Se2499 Se    0.62185   0.27055   0.07450   0.00000  Uiso   1.00
W2500  W     0.60901   0.29614   0.10108   0.00000  Uiso   1.00
Se2501 Se    0.61543   0.30893   0.12767   0.00000  Uiso   1.00
Se2502 Se    0.61543   0.30893   0.07450   0.00000  Uiso   1.00
W2503  W     0.60259   0.33452   0.10108   0.00000  Uiso   1.00
Se2504 Se    0.60901   0.34732   0.12767   0.00000  Uiso   1.00
Se2505 Se    0.60901   0.34732   0.07450   0.00000  Uiso   1.00
W2506  W     0.59617   0.37291   0.10108   0.00000  Uiso   1.00
Se2507 Se    0.60259   0.38570   0.12767   0.00000  Uiso   1.00
Se2508 Se    0.60259   0.38570   0.07450   0.00000  Uiso   1.00
W2509  W     0.58975   0.41129   0.10108   0.00000  Uiso   1.00
Se2510 Se    0.59617   0.42408   0.12767   0.00000  Uiso   1.00
Se2511 Se    0.59617   0.42408   0.07450   0.00000  Uiso   1.00
W2512  W     0.58333   0.44967   0.10108   0.00000  Uiso   1.00
Se2513 Se    0.58975   0.46247   0.12767   0.00000  Uiso   1.00
Se2514 Se    0.58975   0.46247   0.07450   0.00000  Uiso   1.00
W2515  W     0.57691   0.48806   0.10108   0.00000  Uiso   1.00
Se2516 Se    0.58333   0.50085   0.12767   0.00000  Uiso   1.00
Se2517 Se    0.58333   0.50085   0.07450   0.00000  Uiso   1.00
W2518  W     0.57049   0.52644   0.10108   0.00000  Uiso   1.00
Se2519 Se    0.57691   0.53923   0.12767   0.00000  Uiso   1.00
Se2520 Se    0.57691   0.53923   0.07450   0.00000  Uiso   1.00
W2521  W     0.56407   0.56482   0.10108   0.00000  Uiso   1.00
Se2522 Se    0.57049   0.57762   0.12767   0.00000  Uiso   1.00
Se2523 Se    0.57049   0.57762   0.07450   0.00000  Uiso   1.00
W2524  W     0.55765   0.60321   0.10108   0.00000  Uiso   1.00
Se2525 Se    0.56407   0.61600   0.12767   0.00000  Uiso   1.00
Se2526 Se    0.56407   0.61600   0.07450   0.00000  Uiso   1.00
W2527  W     0.55123   0.64159   0.10108   0.00000  Uiso   1.00
Se2528 Se    0.55765   0.65438   0.12767   0.00000  Uiso   1.00
Se2529 Se    0.55765   0.65438   0.07450   0.00000  Uiso   1.00
W2530  W     0.54481   0.67997   0.10108   0.00000  Uiso   1.00
Se2531 Se    0.55123   0.69277   0.12767   0.00000  Uiso   1.00
Se2532 Se    0.55123   0.69277   0.07450   0.00000  Uiso   1.00
W2533  W     0.53839   0.71836   0.10108   0.00000  Uiso   1.00
Se2534 Se    0.54481   0.73115   0.12767   0.00000  Uiso   1.00
Se2535 Se    0.54481   0.73115   0.07450   0.00000  Uiso   1.00
W2536  W     0.53197   0.75674   0.10108   0.00000  Uiso   1.00
Se2537 Se    0.53839   0.76954   0.12767   0.00000  Uiso   1.00
Se2538 Se    0.53839   0.76954   0.07450   0.00000  Uiso   1.00
W2539  W     0.52555   0.79512   0.10108   0.00000  Uiso   1.00
Se2540 Se    0.53197   0.80792   0.12767   0.00000  Uiso   1.00
Se2541 Se    0.53197   0.80792   0.07450   0.00000  Uiso   1.00
W2542  W     0.51913   0.83351   0.10108   0.00000  Uiso   1.00
Se2543 Se    0.52555   0.84630   0.12767   0.00000  Uiso   1.00
Se2544 Se    0.52555   0.84630   0.07450   0.00000  Uiso   1.00
W2545  W     0.51271   0.87189   0.10108   0.00000  Uiso   1.00
Se2546 Se    0.51913   0.88469   0.12767   0.00000  Uiso   1.00
Se2547 Se    0.51913   0.88469   0.07450   0.00000  Uiso   1.00
W2548  W     0.50629   0.91027   0.10108   0.00000  Uiso   1.00
Se2549 Se    0.51271   0.92307   0.12767   0.00000  Uiso   1.00
Se2550 Se    0.51271   0.92307   0.07450   0.00000  Uiso   1.00
W2551  W     0.49987   0.94866   0.10108   0.00000  Uiso   1.00
Se2552 Se    0.50629   0.96145   0.12767   0.00000  Uiso   1.00
Se2553 Se    0.50629   0.96145   0.07450   0.00000  Uiso   1.00
W2554  W     0.66679   0.02746   0.10108   0.00000  Uiso   1.00
Se2555 Se    0.67321   0.04025   0.12767   0.00000  Uiso   1.00
Se2556 Se    0.67321   0.04025   0.07450   0.00000  Uiso   1.00
W2557  W     0.66037   0.06584   0.10108   0.00000  Uiso   1.00
Se2558 Se    0.66679   0.07863   0.12767   0.00000  Uiso   1.00
Se2559 Se    0.66679   0.07863   0.07450   0.00000  Uiso   1.00
W2560  W     0.65395   0.10422   0.10108   0.00000  Uiso   1.00
Se2561 Se    0.66037   0.11702   0.12767   0.00000  Uiso   1.00
Se2562 Se    0.66037   0.11702   0.07450   0.00000  Uiso   1.00
W2563  W     0.64753   0.14261   0.10108   0.00000  Uiso   1.00
Se2564 Se    0.65395   0.15540   0.12767   0.00000  Uiso   1.00
Se2565 Se    0.65395   0.15540   0.07450   0.00000  Uiso   1.00
W2566  W     0.64111   0.18099   0.10108   0.00000  Uiso   1.00
Se2567 Se    0.64753   0.19378   0.12767   0.00000  Uiso   1.00
Se2568 Se    0.64753   0.19378   0.07450   0.00000  Uiso   1.00
W2569  W     0.63469   0.21937   0.10108   0.00000  Uiso   1.00
Se2570 Se    0.64111   0.23217   0.12767   0.00000  Uiso   1.00
Se2571 Se    0.64111   0.23217   0.07450   0.00000  Uiso   1.00
W2572  W     0.62827   0.25776   0.10108   0.00000  Uiso   1.00
Se2573 Se    0.63469   0.27055   0.12767   0.00000  Uiso   1.00
Se2574 Se    0.63469   0.27055   0.07450   0.00000  Uiso   1.00
W2575  W     0.62185   0.29614   0.10108   0.00000  Uiso   1.00
Se2576 Se    0.62827   0.30893   0.12767   0.00000  Uiso   1.00
Se2577 Se    0.62827   0.30893   0.07450   0.00000  Uiso   1.00
W2578  W     0.61543   0.33452   0.10108   0.00000  Uiso   1.00
Se2579 Se    0.62185   0.34732   0.12767   0.00000  Uiso   1.00
Se2580 Se    0.62185   0.34732   0.07450   0.00000  Uiso   1.00
W2581  W     0.60901   0.37291   0.10108   0.00000  Uiso   1.00
Se2582 Se    0.61543   0.38570   0.12767   0.00000  Uiso   1.00
Se2583 Se    0.61543   0.38570   0.07450   0.00000  Uiso   1.00
W2584  W     0.60259   0.41129   0.10108   0.00000  Uiso   1.00
Se2585 Se    0.60901   0.42408   0.12767   0.00000  Uiso   1.00
Se2586 Se    0.60901   0.42408   0.07450   0.00000  Uiso   1.00
W2587  W     0.59617   0.44967   0.10108   0.00000  Uiso   1.00
Se2588 Se    0.60259   0.46247   0.12767   0.00000  Uiso   1.00
Se2589 Se    0.60259   0.46247   0.07450   0.00000  Uiso   1.00
W2590  W     0.58975   0.48806   0.10108   0.00000  Uiso   1.00
Se2591 Se    0.59617   0.50085   0.12767   0.00000  Uiso   1.00
Se2592 Se    0.59617   0.50085   0.07450   0.00000  Uiso   1.00
W2593  W     0.58333   0.52644   0.10108   0.00000  Uiso   1.00
Se2594 Se    0.58975   0.53923   0.12767   0.00000  Uiso   1.00
Se2595 Se    0.58975   0.53923   0.07450   0.00000  Uiso   1.00
W2596  W     0.57691   0.56482   0.10108   0.00000  Uiso   1.00
Se2597 Se    0.58333   0.57762   0.12767   0.00000  Uiso   1.00
Se2598 Se    0.58333   0.57762   0.07450   0.00000  Uiso   1.00
W2599  W     0.57049   0.60321   0.10108   0.00000  Uiso   1.00
Se2600 Se    0.57691   0.61600   0.12767   0.00000  Uiso   1.00
Se2601 Se    0.57691   0.61600   0.07450   0.00000  Uiso   1.00
W2602  W     0.56407   0.64159   0.10108   0.00000  Uiso   1.00
Se2603 Se    0.57049   0.65438   0.12767   0.00000  Uiso   1.00
Se2604 Se    0.57049   0.65438   0.07450   0.00000  Uiso   1.00
W2605  W     0.55765   0.67997   0.10108   0.00000  Uiso   1.00
Se2606 Se    0.56407   0.69277   0.12767   0.00000  Uiso   1.00
Se2607 Se    0.56407   0.69277   0.07450   0.00000  Uiso   1.00
W2608  W     0.55123   0.71836   0.10108   0.00000  Uiso   1.00
Se2609 Se    0.55765   0.73115   0.12767   0.00000  Uiso   1.00
Se2610 Se    0.55765   0.73115   0.07450   0.00000  Uiso   1.00
W2611  W     0.54481   0.75674   0.10108   0.00000  Uiso   1.00
Se2612 Se    0.55123   0.76954   0.12767   0.00000  Uiso   1.00
Se2613 Se    0.55123   0.76954   0.07450   0.00000  Uiso   1.00
W2614  W     0.53839   0.79512   0.10108   0.00000  Uiso   1.00
Se2615 Se    0.54481   0.80792   0.12767   0.00000  Uiso   1.00
Se2616 Se    0.54481   0.80792   0.07450   0.00000  Uiso   1.00
W2617  W     0.53197   0.83351   0.10108   0.00000  Uiso   1.00
Se2618 Se    0.53839   0.84630   0.12767   0.00000  Uiso   1.00
Se2619 Se    0.53839   0.84630   0.07450   0.00000  Uiso   1.00
W2620  W     0.52555   0.87189   0.10108   0.00000  Uiso   1.00
Se2621 Se    0.53197   0.88469   0.12767   0.00000  Uiso   1.00
Se2622 Se    0.53197   0.88469   0.07450   0.00000  Uiso   1.00
W2623  W     0.51913   0.91027   0.10108   0.00000  Uiso   1.00
Se2624 Se    0.52555   0.92307   0.12767   0.00000  Uiso   1.00
Se2625 Se    0.52555   0.92307   0.07450   0.00000  Uiso   1.00
W2626  W     0.51271   0.94866   0.10108   0.00000  Uiso   1.00
Se2627 Se    0.51913   0.96145   0.12767   0.00000  Uiso   1.00
Se2628 Se    0.51913   0.96145   0.07450   0.00000  Uiso   1.00
W2629  W     0.67963   0.02746   0.10108   0.00000  Uiso   1.00
Se2630 Se    0.68605   0.04025   0.12767   0.00000  Uiso   1.00
Se2631 Se    0.68605   0.04025   0.07450   0.00000  Uiso   1.00
W2632  W     0.67321   0.06584   0.10108   0.00000  Uiso   1.00
Se2633 Se    0.67963   0.07863   0.12767   0.00000  Uiso   1.00
Se2634 Se    0.67963   0.07863   0.07450   0.00000  Uiso   1.00
W2635  W     0.66679   0.10422   0.10108   0.00000  Uiso   1.00
Se2636 Se    0.67321   0.11702   0.12767   0.00000  Uiso   1.00
Se2637 Se    0.67321   0.11702   0.07450   0.00000  Uiso   1.00
W2638  W     0.66037   0.14261   0.10108   0.00000  Uiso   1.00
Se2639 Se    0.66679   0.15540   0.12767   0.00000  Uiso   1.00
Se2640 Se    0.66679   0.15540   0.07450   0.00000  Uiso   1.00
W2641  W     0.65395   0.18099   0.10108   0.00000  Uiso   1.00
Se2642 Se    0.66037   0.19378   0.12767   0.00000  Uiso   1.00
Se2643 Se    0.66037   0.19378   0.07450   0.00000  Uiso   1.00
W2644  W     0.64753   0.21937   0.10108   0.00000  Uiso   1.00
Se2645 Se    0.65395   0.23217   0.12767   0.00000  Uiso   1.00
Se2646 Se    0.65395   0.23217   0.07450   0.00000  Uiso   1.00
W2647  W     0.64111   0.25776   0.10108   0.00000  Uiso   1.00
Se2648 Se    0.64753   0.27055   0.12767   0.00000  Uiso   1.00
Se2649 Se    0.64753   0.27055   0.07450   0.00000  Uiso   1.00
W2650  W     0.63469   0.29614   0.10108   0.00000  Uiso   1.00
Se2651 Se    0.64111   0.30893   0.12767   0.00000  Uiso   1.00
Se2652 Se    0.64111   0.30893   0.07450   0.00000  Uiso   1.00
W2653  W     0.62827   0.33452   0.10108   0.00000  Uiso   1.00
Se2654 Se    0.63469   0.34732   0.12767   0.00000  Uiso   1.00
Se2655 Se    0.63469   0.34732   0.07450   0.00000  Uiso   1.00
W2656  W     0.62185   0.37291   0.10108   0.00000  Uiso   1.00
Se2657 Se    0.62827   0.38570   0.12767   0.00000  Uiso   1.00
Se2658 Se    0.62827   0.38570   0.07450   0.00000  Uiso   1.00
W2659  W     0.61543   0.41129   0.10108   0.00000  Uiso   1.00
Se2660 Se    0.62185   0.42408   0.12767   0.00000  Uiso   1.00
Se2661 Se    0.62185   0.42408   0.07450   0.00000  Uiso   1.00
W2662  W     0.60901   0.44967   0.10108   0.00000  Uiso   1.00
Se2663 Se    0.61543   0.46247   0.12767   0.00000  Uiso   1.00
Se2664 Se    0.61543   0.46247   0.07450   0.00000  Uiso   1.00
W2665  W     0.60259   0.48806   0.10108   0.00000  Uiso   1.00
Se2666 Se    0.60901   0.50085   0.12767   0.00000  Uiso   1.00
Se2667 Se    0.60901   0.50085   0.07450   0.00000  Uiso   1.00
W2668  W     0.59617   0.52644   0.10108   0.00000  Uiso   1.00
Se2669 Se    0.60259   0.53923   0.12767   0.00000  Uiso   1.00
Se2670 Se    0.60259   0.53923   0.07450   0.00000  Uiso   1.00
W2671  W     0.58975   0.56482   0.10108   0.00000  Uiso   1.00
Se2672 Se    0.59617   0.57762   0.12767   0.00000  Uiso   1.00
Se2673 Se    0.59617   0.57762   0.07450   0.00000  Uiso   1.00
W2674  W     0.58333   0.60321   0.10108   0.00000  Uiso   1.00
Se2675 Se    0.58975   0.61600   0.12767   0.00000  Uiso   1.00
Se2676 Se    0.58975   0.61600   0.07450   0.00000  Uiso   1.00
W2677  W     0.57691   0.64159   0.10108   0.00000  Uiso   1.00
Se2678 Se    0.58333   0.65438   0.12767   0.00000  Uiso   1.00
Se2679 Se    0.58333   0.65438   0.07450   0.00000  Uiso   1.00
W2680  W     0.57049   0.67997   0.10108   0.00000  Uiso   1.00
Se2681 Se    0.57691   0.69277   0.12767   0.00000  Uiso   1.00
Se2682 Se    0.57691   0.69277   0.07450   0.00000  Uiso   1.00
W2683  W     0.56407   0.71836   0.10108   0.00000  Uiso   1.00
Se2684 Se    0.57049   0.73115   0.12767   0.00000  Uiso   1.00
Se2685 Se    0.57049   0.73115   0.07450   0.00000  Uiso   1.00
W2686  W     0.55765   0.75674   0.10108   0.00000  Uiso   1.00
Se2687 Se    0.56407   0.76954   0.12767   0.00000  Uiso   1.00
Se2688 Se    0.56407   0.76954   0.07450   0.00000  Uiso   1.00
W2689  W     0.55123   0.79512   0.10108   0.00000  Uiso   1.00
Se2690 Se    0.55765   0.80792   0.12767   0.00000  Uiso   1.00
Se2691 Se    0.55765   0.80792   0.07450   0.00000  Uiso   1.00
W2692  W     0.54481   0.83351   0.10108   0.00000  Uiso   1.00
Se2693 Se    0.55123   0.84630   0.12767   0.00000  Uiso   1.00
Se2694 Se    0.55123   0.84630   0.07450   0.00000  Uiso   1.00
W2695  W     0.53839   0.87189   0.10108   0.00000  Uiso   1.00
Se2696 Se    0.54481   0.88469   0.12767   0.00000  Uiso   1.00
Se2697 Se    0.54481   0.88469   0.07450   0.00000  Uiso   1.00
W2698  W     0.53197   0.91027   0.10108   0.00000  Uiso   1.00
Se2699 Se    0.53839   0.92307   0.12767   0.00000  Uiso   1.00
Se2700 Se    0.53839   0.92307   0.07450   0.00000  Uiso   1.00
W2701  W     0.52555   0.94866   0.10108   0.00000  Uiso   1.00
Se2702 Se    0.53197   0.96145   0.12767   0.00000  Uiso   1.00
Se2703 Se    0.53197   0.96145   0.07450   0.00000  Uiso   1.00
W2704  W     0.69247   0.02746   0.10108   0.00000  Uiso   1.00
Se2705 Se    0.69889   0.04025   0.12767   0.00000  Uiso   1.00
Se2706 Se    0.69889   0.04025   0.07450   0.00000  Uiso   1.00
W2707  W     0.68605   0.06584   0.10108   0.00000  Uiso   1.00
Se2708 Se    0.69247   0.07863   0.12767   0.00000  Uiso   1.00
Se2709 Se    0.69247   0.07863   0.07450   0.00000  Uiso   1.00
W2710  W     0.67963   0.10422   0.10108   0.00000  Uiso   1.00
Se2711 Se    0.68605   0.11702   0.12767   0.00000  Uiso   1.00
Se2712 Se    0.68605   0.11702   0.07450   0.00000  Uiso   1.00
W2713  W     0.67321   0.14261   0.10108   0.00000  Uiso   1.00
Se2714 Se    0.67963   0.15540   0.12767   0.00000  Uiso   1.00
Se2715 Se    0.67963   0.15540   0.07450   0.00000  Uiso   1.00
W2716  W     0.66679   0.18099   0.10108   0.00000  Uiso   1.00
Se2717 Se    0.67321   0.19378   0.12767   0.00000  Uiso   1.00
Se2718 Se    0.67321   0.19378   0.07450   0.00000  Uiso   1.00
W2719  W     0.66037   0.21937   0.10108   0.00000  Uiso   1.00
Se2720 Se    0.66679   0.23217   0.12767   0.00000  Uiso   1.00
Se2721 Se    0.66679   0.23217   0.07450   0.00000  Uiso   1.00
W2722  W     0.65395   0.25776   0.10108   0.00000  Uiso   1.00
Se2723 Se    0.66037   0.27055   0.12767   0.00000  Uiso   1.00
Se2724 Se    0.66037   0.27055   0.07450   0.00000  Uiso   1.00
W2725  W     0.64753   0.29614   0.10108   0.00000  Uiso   1.00
Se2726 Se    0.65395   0.30893   0.12767   0.00000  Uiso   1.00
Se2727 Se    0.65395   0.30893   0.07450   0.00000  Uiso   1.00
W2728  W     0.64111   0.33452   0.10108   0.00000  Uiso   1.00
Se2729 Se    0.64753   0.34732   0.12767   0.00000  Uiso   1.00
Se2730 Se    0.64753   0.34732   0.07450   0.00000  Uiso   1.00
W2731  W     0.63469   0.37291   0.10108   0.00000  Uiso   1.00
Se2732 Se    0.64111   0.38570   0.12767   0.00000  Uiso   1.00
Se2733 Se    0.64111   0.38570   0.07450   0.00000  Uiso   1.00
W2734  W     0.62827   0.41129   0.10108   0.00000  Uiso   1.00
Se2735 Se    0.63469   0.42408   0.12767   0.00000  Uiso   1.00
Se2736 Se    0.63469   0.42408   0.07450   0.00000  Uiso   1.00
W2737  W     0.62185   0.44967   0.10108   0.00000  Uiso   1.00
Se2738 Se    0.62827   0.46247   0.12767   0.00000  Uiso   1.00
Se2739 Se    0.62827   0.46247   0.07450   0.00000  Uiso   1.00
W2740  W     0.61543   0.48806   0.10108   0.00000  Uiso   1.00
Se2741 Se    0.62185   0.50085   0.12767   0.00000  Uiso   1.00
Se2742 Se    0.62185   0.50085   0.07450   0.00000  Uiso   1.00
W2743  W     0.60901   0.52644   0.10108   0.00000  Uiso   1.00
Se2744 Se    0.61543   0.53923   0.12767   0.00000  Uiso   1.00
Se2745 Se    0.61543   0.53923   0.07450   0.00000  Uiso   1.00
W2746  W     0.60259   0.56482   0.10108   0.00000  Uiso   1.00
Se2747 Se    0.60901   0.57762   0.12767   0.00000  Uiso   1.00
Se2748 Se    0.60901   0.57762   0.07450   0.00000  Uiso   1.00
W2749  W     0.59617   0.60321   0.10108   0.00000  Uiso   1.00
Se2750 Se    0.60259   0.61600   0.12767   0.00000  Uiso   1.00
Se2751 Se    0.60259   0.61600   0.07450   0.00000  Uiso   1.00
W2752  W     0.58975   0.64159   0.10108   0.00000  Uiso   1.00
Se2753 Se    0.59617   0.65438   0.12767   0.00000  Uiso   1.00
Se2754 Se    0.59617   0.65438   0.07450   0.00000  Uiso   1.00
W2755  W     0.58333   0.67997   0.10108   0.00000  Uiso   1.00
Se2756 Se    0.58975   0.69277   0.12767   0.00000  Uiso   1.00
Se2757 Se    0.58975   0.69277   0.07450   0.00000  Uiso   1.00
W2758  W     0.57691   0.71836   0.10108   0.00000  Uiso   1.00
Se2759 Se    0.58333   0.73115   0.12767   0.00000  Uiso   1.00
Se2760 Se    0.58333   0.73115   0.07450   0.00000  Uiso   1.00
W2761  W     0.57049   0.75674   0.10108   0.00000  Uiso   1.00
Se2762 Se    0.57691   0.76954   0.12767   0.00000  Uiso   1.00
Se2763 Se    0.57691   0.76954   0.07450   0.00000  Uiso   1.00
W2764  W     0.56407   0.79512   0.10108   0.00000  Uiso   1.00
Se2765 Se    0.57049   0.80792   0.12767   0.00000  Uiso   1.00
Se2766 Se    0.57049   0.80792   0.07450   0.00000  Uiso   1.00
W2767  W     0.55765   0.83351   0.10108   0.00000  Uiso   1.00
Se2768 Se    0.56407   0.84630   0.12767   0.00000  Uiso   1.00
Se2769 Se    0.56407   0.84630   0.07450   0.00000  Uiso   1.00
W2770  W     0.55123   0.87189   0.10108   0.00000  Uiso   1.00
Se2771 Se    0.55765   0.88469   0.12767   0.00000  Uiso   1.00
Se2772 Se    0.55765   0.88469   0.07450   0.00000  Uiso   1.00
W2773  W     0.54481   0.91027   0.10108   0.00000  Uiso   1.00
Se2774 Se    0.55123   0.92307   0.12767   0.00000  Uiso   1.00
Se2775 Se    0.55123   0.92307   0.07450   0.00000  Uiso   1.00
W2776  W     0.53839   0.94866   0.10108   0.00000  Uiso   1.00
Se2777 Se    0.54481   0.96145   0.12767   0.00000  Uiso   1.00
Se2778 Se    0.54481   0.96145   0.07450   0.00000  Uiso   1.00
W2779  W     0.70531   0.02746   0.10108   0.00000  Uiso   1.00
Se2780 Se    0.71173   0.04025   0.12767   0.00000  Uiso   1.00
Se2781 Se    0.71173   0.04025   0.07450   0.00000  Uiso   1.00
W2782  W     0.69889   0.06584   0.10108   0.00000  Uiso   1.00
Se2783 Se    0.70531   0.07863   0.12767   0.00000  Uiso   1.00
Se2784 Se    0.70531   0.07863   0.07450   0.00000  Uiso   1.00
W2785  W     0.69247   0.10422   0.10108   0.00000  Uiso   1.00
Se2786 Se    0.69889   0.11702   0.12767   0.00000  Uiso   1.00
Se2787 Se    0.69889   0.11702   0.07450   0.00000  Uiso   1.00
W2788  W     0.68605   0.14261   0.10108   0.00000  Uiso   1.00
Se2789 Se    0.69247   0.15540   0.12767   0.00000  Uiso   1.00
Se2790 Se    0.69247   0.15540   0.07450   0.00000  Uiso   1.00
W2791  W     0.67963   0.18099   0.10108   0.00000  Uiso   1.00
Se2792 Se    0.68605   0.19378   0.12767   0.00000  Uiso   1.00
Se2793 Se    0.68605   0.19378   0.07450   0.00000  Uiso   1.00
W2794  W     0.67321   0.21937   0.10108   0.00000  Uiso   1.00
Se2795 Se    0.67963   0.23217   0.12767   0.00000  Uiso   1.00
Se2796 Se    0.67963   0.23217   0.07450   0.00000  Uiso   1.00
W2797  W     0.66679   0.25776   0.10108   0.00000  Uiso   1.00
Se2798 Se    0.67321   0.27055   0.12767   0.00000  Uiso   1.00
Se2799 Se    0.67321   0.27055   0.07450   0.00000  Uiso   1.00
W2800  W     0.66037   0.29614   0.10108   0.00000  Uiso   1.00
Se2801 Se    0.66679   0.30893   0.12767   0.00000  Uiso   1.00
Se2802 Se    0.66679   0.30893   0.07450   0.00000  Uiso   1.00
W2803  W     0.65395   0.33452   0.10108   0.00000  Uiso   1.00
Se2804 Se    0.66037   0.34732   0.12767   0.00000  Uiso   1.00
Se2805 Se    0.66037   0.34732   0.07450   0.00000  Uiso   1.00
W2806  W     0.64753   0.37291   0.10108   0.00000  Uiso   1.00
Se2807 Se    0.65395   0.38570   0.12767   0.00000  Uiso   1.00
Se2808 Se    0.65395   0.38570   0.07450   0.00000  Uiso   1.00
W2809  W     0.64111   0.41129   0.10108   0.00000  Uiso   1.00
Se2810 Se    0.64753   0.42408   0.12767   0.00000  Uiso   1.00
Se2811 Se    0.64753   0.42408   0.07450   0.00000  Uiso   1.00
W2812  W     0.63469   0.44967   0.10108   0.00000  Uiso   1.00
Se2813 Se    0.64111   0.46247   0.12767   0.00000  Uiso   1.00
Se2814 Se    0.64111   0.46247   0.07450   0.00000  Uiso   1.00
W2815  W     0.62827   0.48806   0.10108   0.00000  Uiso   1.00
Se2816 Se    0.63469   0.50085   0.12767   0.00000  Uiso   1.00
Se2817 Se    0.63469   0.50085   0.07450   0.00000  Uiso   1.00
W2818  W     0.62185   0.52644   0.10108   0.00000  Uiso   1.00
Se2819 Se    0.62827   0.53923   0.12767   0.00000  Uiso   1.00
Se2820 Se    0.62827   0.53923   0.07450   0.00000  Uiso   1.00
W2821  W     0.61543   0.56482   0.10108   0.00000  Uiso   1.00
Se2822 Se    0.62185   0.57762   0.12767   0.00000  Uiso   1.00
Se2823 Se    0.62185   0.57762   0.07450   0.00000  Uiso   1.00
W2824  W     0.60901   0.60321   0.10108   0.00000  Uiso   1.00
Se2825 Se    0.61543   0.61600   0.12767   0.00000  Uiso   1.00
Se2826 Se    0.61543   0.61600   0.07450   0.00000  Uiso   1.00
W2827  W     0.60259   0.64159   0.10108   0.00000  Uiso   1.00
Se2828 Se    0.60901   0.65438   0.12767   0.00000  Uiso   1.00
Se2829 Se    0.60901   0.65438   0.07450   0.00000  Uiso   1.00
W2830  W     0.59617   0.67997   0.10108   0.00000  Uiso   1.00
Se2831 Se    0.60259   0.69277   0.12767   0.00000  Uiso   1.00
Se2832 Se    0.60259   0.69277   0.07450   0.00000  Uiso   1.00
W2833  W     0.58975   0.71836   0.10108   0.00000  Uiso   1.00
Se2834 Se    0.59617   0.73115   0.12767   0.00000  Uiso   1.00
Se2835 Se    0.59617   0.73115   0.07450   0.00000  Uiso   1.00
W2836  W     0.58333   0.75674   0.10108   0.00000  Uiso   1.00
Se2837 Se    0.58975   0.76954   0.12767   0.00000  Uiso   1.00
Se2838 Se    0.58975   0.76954   0.07450   0.00000  Uiso   1.00
W2839  W     0.57691   0.79512   0.10108   0.00000  Uiso   1.00
Se2840 Se    0.58333   0.80792   0.12767   0.00000  Uiso   1.00
Se2841 Se    0.58333   0.80792   0.07450   0.00000  Uiso   1.00
W2842  W     0.57049   0.83351   0.10108   0.00000  Uiso   1.00
Se2843 Se    0.57691   0.84630   0.12767   0.00000  Uiso   1.00
Se2844 Se    0.57691   0.84630   0.07450   0.00000  Uiso   1.00
W2845  W     0.56407   0.87189   0.10108   0.00000  Uiso   1.00
Se2846 Se    0.57049   0.88469   0.12767   0.00000  Uiso   1.00
Se2847 Se    0.57049   0.88469   0.07450   0.00000  Uiso   1.00
W2848  W     0.55765   0.91027   0.10108   0.00000  Uiso   1.00
Se2849 Se    0.56407   0.92307   0.12767   0.00000  Uiso   1.00
Se2850 Se    0.56407   0.92307   0.07450   0.00000  Uiso   1.00
W2851  W     0.55123   0.94866   0.10108   0.00000  Uiso   1.00
Se2852 Se    0.55765   0.96145   0.12767   0.00000  Uiso   1.00
Se2853 Se    0.55765   0.96145   0.07450   0.00000  Uiso   1.00
W2854  W     0.71815   0.02746   0.10108   0.00000  Uiso   1.00
Se2855 Se    0.72457   0.04025   0.12767   0.00000  Uiso   1.00
Se2856 Se    0.72457   0.04025   0.07450   0.00000  Uiso   1.00
W2857  W     0.71173   0.06584   0.10108   0.00000  Uiso   1.00
Se2858 Se    0.71815   0.07863   0.12767   0.00000  Uiso   1.00
Se2859 Se    0.71815   0.07863   0.07450   0.00000  Uiso   1.00
W2860  W     0.70531   0.10422   0.10108   0.00000  Uiso   1.00
Se2861 Se    0.71173   0.11702   0.12767   0.00000  Uiso   1.00
Se2862 Se    0.71173   0.11702   0.07450   0.00000  Uiso   1.00
W2863  W     0.69889   0.14261   0.10108   0.00000  Uiso   1.00
Se2864 Se    0.70531   0.15540   0.12767   0.00000  Uiso   1.00
Se2865 Se    0.70531   0.15540   0.07450   0.00000  Uiso   1.00
W2866  W     0.69247   0.18099   0.10108   0.00000  Uiso   1.00
Se2867 Se    0.69889   0.19378   0.12767   0.00000  Uiso   1.00
Se2868 Se    0.69889   0.19378   0.07450   0.00000  Uiso   1.00
W2869  W     0.68605   0.21937   0.10108   0.00000  Uiso   1.00
Se2870 Se    0.69247   0.23217   0.12767   0.00000  Uiso   1.00
Se2871 Se    0.69247   0.23217   0.07450   0.00000  Uiso   1.00
W2872  W     0.67963   0.25776   0.10108   0.00000  Uiso   1.00
Se2873 Se    0.68605   0.27055   0.12767   0.00000  Uiso   1.00
Se2874 Se    0.68605   0.27055   0.07450   0.00000  Uiso   1.00
W2875  W     0.67321   0.29614   0.10108   0.00000  Uiso   1.00
Se2876 Se    0.67963   0.30893   0.12767   0.00000  Uiso   1.00
Se2877 Se    0.67963   0.30893   0.07450   0.00000  Uiso   1.00
W2878  W     0.66679   0.33452   0.10108   0.00000  Uiso   1.00
Se2879 Se    0.67321   0.34732   0.12767   0.00000  Uiso   1.00
Se2880 Se    0.67321   0.34732   0.07450   0.00000  Uiso   1.00
W2881  W     0.66037   0.37291   0.10108   0.00000  Uiso   1.00
Se2882 Se    0.66679   0.38570   0.12767   0.00000  Uiso   1.00
Se2883 Se    0.66679   0.38570   0.07450   0.00000  Uiso   1.00
W2884  W     0.65395   0.41129   0.10108   0.00000  Uiso   1.00
Se2885 Se    0.66037   0.42408   0.12767   0.00000  Uiso   1.00
Se2886 Se    0.66037   0.42408   0.07450   0.00000  Uiso   1.00
W2887  W     0.64753   0.44967   0.10108   0.00000  Uiso   1.00
Se2888 Se    0.65395   0.46247   0.12767   0.00000  Uiso   1.00
Se2889 Se    0.65395   0.46247   0.07450   0.00000  Uiso   1.00
W2890  W     0.64111   0.48806   0.10108   0.00000  Uiso   1.00
Se2891 Se    0.64753   0.50085   0.12767   0.00000  Uiso   1.00
Se2892 Se    0.64753   0.50085   0.07450   0.00000  Uiso   1.00
W2893  W     0.63469   0.52644   0.10108   0.00000  Uiso   1.00
Se2894 Se    0.64111   0.53923   0.12767   0.00000  Uiso   1.00
Se2895 Se    0.64111   0.53923   0.07450   0.00000  Uiso   1.00
W2896  W     0.62827   0.56482   0.10108   0.00000  Uiso   1.00
Se2897 Se    0.63469   0.57762   0.12767   0.00000  Uiso   1.00
Se2898 Se    0.63469   0.57762   0.07450   0.00000  Uiso   1.00
W2899  W     0.62185   0.60321   0.10108   0.00000  Uiso   1.00
Se2900 Se    0.62827   0.61600   0.12767   0.00000  Uiso   1.00
Se2901 Se    0.62827   0.61600   0.07450   0.00000  Uiso   1.00
W2902  W     0.61543   0.64159   0.10108   0.00000  Uiso   1.00
Se2903 Se    0.62185   0.65438   0.12767   0.00000  Uiso   1.00
Se2904 Se    0.62185   0.65438   0.07450   0.00000  Uiso   1.00
W2905  W     0.60901   0.67997   0.10108   0.00000  Uiso   1.00
Se2906 Se    0.61543   0.69277   0.12767   0.00000  Uiso   1.00
Se2907 Se    0.61543   0.69277   0.07450   0.00000  Uiso   1.00
W2908  W     0.60259   0.71836   0.10108   0.00000  Uiso   1.00
Se2909 Se    0.60901   0.73115   0.12767   0.00000  Uiso   1.00
Se2910 Se    0.60901   0.73115   0.07450   0.00000  Uiso   1.00
W2911  W     0.59617   0.75674   0.10108   0.00000  Uiso   1.00
Se2912 Se    0.60259   0.76954   0.12767   0.00000  Uiso   1.00
Se2913 Se    0.60259   0.76954   0.07450   0.00000  Uiso   1.00
W2914  W     0.58975   0.79512   0.10108   0.00000  Uiso   1.00
Se2915 Se    0.59617   0.80792   0.12767   0.00000  Uiso   1.00
Se2916 Se    0.59617   0.80792   0.07450   0.00000  Uiso   1.00
W2917  W     0.58333   0.83351   0.10108   0.00000  Uiso   1.00
Se2918 Se    0.58975   0.84630   0.12767   0.00000  Uiso   1.00
Se2919 Se    0.58975   0.84630   0.07450   0.00000  Uiso   1.00
W2920  W     0.57691   0.87189   0.10108   0.00000  Uiso   1.00
Se2921 Se    0.58333   0.88469   0.12767   0.00000  Uiso   1.00
Se2922 Se    0.58333   0.88469   0.07450   0.00000  Uiso   1.00
W2923  W     0.57049   0.91027   0.10108   0.00000  Uiso   1.00
Se2924 Se    0.57691   0.92307   0.12767   0.00000  Uiso   1.00
Se2925 Se    0.57691   0.92307   0.07450   0.00000  Uiso   1.00
W2926  W     0.56407   0.94866   0.10108   0.00000  Uiso   1.00
Se2927 Se    0.57049   0.96145   0.12767   0.00000  Uiso   1.00
Se2928 Se    0.57049   0.96145   0.07450   0.00000  Uiso   1.00
W2929  W     0.73099   0.02746   0.10108   0.00000  Uiso   1.00
Se2930 Se    0.73741   0.04025   0.12767   0.00000  Uiso   1.00
Se2931 Se    0.73741   0.04025   0.07450   0.00000  Uiso   1.00
W2932  W     0.72457   0.06584   0.10108   0.00000  Uiso   1.00
Se2933 Se    0.73099   0.07863   0.12767   0.00000  Uiso   1.00
Se2934 Se    0.73099   0.07863   0.07450   0.00000  Uiso   1.00
W2935  W     0.71815   0.10422   0.10108   0.00000  Uiso   1.00
Se2936 Se    0.72457   0.11702   0.12767   0.00000  Uiso   1.00
Se2937 Se    0.72457   0.11702   0.07450   0.00000  Uiso   1.00
W2938  W     0.71173   0.14261   0.10108   0.00000  Uiso   1.00
Se2939 Se    0.71815   0.15540   0.12767   0.00000  Uiso   1.00
Se2940 Se    0.71815   0.15540   0.07450   0.00000  Uiso   1.00
W2941  W     0.70531   0.18099   0.10108   0.00000  Uiso   1.00
Se2942 Se    0.71173   0.19378   0.12767   0.00000  Uiso   1.00
Se2943 Se    0.71173   0.19378   0.07450   0.00000  Uiso   1.00
W2944  W     0.69889   0.21937   0.10108   0.00000  Uiso   1.00
Se2945 Se    0.70531   0.23217   0.12767   0.00000  Uiso   1.00
Se2946 Se    0.70531   0.23217   0.07450   0.00000  Uiso   1.00
W2947  W     0.69247   0.25776   0.10108   0.00000  Uiso   1.00
Se2948 Se    0.69889   0.27055   0.12767   0.00000  Uiso   1.00
Se2949 Se    0.69889   0.27055   0.07450   0.00000  Uiso   1.00
W2950  W     0.68605   0.29614   0.10108   0.00000  Uiso   1.00
Se2951 Se    0.69247   0.30893   0.12767   0.00000  Uiso   1.00
Se2952 Se    0.69247   0.30893   0.07450   0.00000  Uiso   1.00
W2953  W     0.67963   0.33452   0.10108   0.00000  Uiso   1.00
Se2954 Se    0.68605   0.34732   0.12767   0.00000  Uiso   1.00
Se2955 Se    0.68605   0.34732   0.07450   0.00000  Uiso   1.00
W2956  W     0.67321   0.37291   0.10108   0.00000  Uiso   1.00
Se2957 Se    0.67963   0.38570   0.12767   0.00000  Uiso   1.00
Se2958 Se    0.67963   0.38570   0.07450   0.00000  Uiso   1.00
W2959  W     0.66679   0.41129   0.10108   0.00000  Uiso   1.00
Se2960 Se    0.67321   0.42408   0.12767   0.00000  Uiso   1.00
Se2961 Se    0.67321   0.42408   0.07450   0.00000  Uiso   1.00
W2962  W     0.66037   0.44967   0.10108   0.00000  Uiso   1.00
Se2963 Se    0.66679   0.46247   0.12767   0.00000  Uiso   1.00
Se2964 Se    0.66679   0.46247   0.07450   0.00000  Uiso   1.00
W2965  W     0.65395   0.48806   0.10108   0.00000  Uiso   1.00
Se2966 Se    0.66037   0.50085   0.12767   0.00000  Uiso   1.00
Se2967 Se    0.66037   0.50085   0.07450   0.00000  Uiso   1.00
W2968  W     0.64753   0.52644   0.10108   0.00000  Uiso   1.00
Se2969 Se    0.65395   0.53923   0.12767   0.00000  Uiso   1.00
Se2970 Se    0.65395   0.53923   0.07450   0.00000  Uiso   1.00
W2971  W     0.64111   0.56482   0.10108   0.00000  Uiso   1.00
Se2972 Se    0.64753   0.57762   0.12767   0.00000  Uiso   1.00
Se2973 Se    0.64753   0.57762   0.07450   0.00000  Uiso   1.00
W2974  W     0.63469   0.60321   0.10108   0.00000  Uiso   1.00
Se2975 Se    0.64111   0.61600   0.12767   0.00000  Uiso   1.00
Se2976 Se    0.64111   0.61600   0.07450   0.00000  Uiso   1.00
W2977  W     0.62827   0.64159   0.10108   0.00000  Uiso   1.00
Se2978 Se    0.63469   0.65438   0.12767   0.00000  Uiso   1.00
Se2979 Se    0.63469   0.65438   0.07450   0.00000  Uiso   1.00
W2980  W     0.62185   0.67997   0.10108   0.00000  Uiso   1.00
Se2981 Se    0.62827   0.69277   0.12767   0.00000  Uiso   1.00
Se2982 Se    0.62827   0.69277   0.07450   0.00000  Uiso   1.00
W2983  W     0.61543   0.71836   0.10108   0.00000  Uiso   1.00
Se2984 Se    0.62185   0.73115   0.12767   0.00000  Uiso   1.00
Se2985 Se    0.62185   0.73115   0.07450   0.00000  Uiso   1.00
W2986  W     0.60901   0.75674   0.10108   0.00000  Uiso   1.00
Se2987 Se    0.61543   0.76954   0.12767   0.00000  Uiso   1.00
Se2988 Se    0.61543   0.76954   0.07450   0.00000  Uiso   1.00
W2989  W     0.60259   0.79512   0.10108   0.00000  Uiso   1.00
Se2990 Se    0.60901   0.80792   0.12767   0.00000  Uiso   1.00
Se2991 Se    0.60901   0.80792   0.07450   0.00000  Uiso   1.00
W2992  W     0.59617   0.83351   0.10108   0.00000  Uiso   1.00
Se2993 Se    0.60259   0.84630   0.12767   0.00000  Uiso   1.00
Se2994 Se    0.60259   0.84630   0.07450   0.00000  Uiso   1.00
W2995  W     0.58975   0.87189   0.10108   0.00000  Uiso   1.00
Se2996 Se    0.59617   0.88469   0.12767   0.00000  Uiso   1.00
Se2997 Se    0.59617   0.88469   0.07450   0.00000  Uiso   1.00
W2998  W     0.58333   0.91027   0.10108   0.00000  Uiso   1.00
Se2999 Se    0.58975   0.92307   0.12767   0.00000  Uiso   1.00
Se3000 Se    0.58975   0.92307   0.07450   0.00000  Uiso   1.00
W3001  W     0.57691   0.94866   0.10108   0.00000  Uiso   1.00
Se3002 Se    0.58333   0.96145   0.12767   0.00000  Uiso   1.00
Se3003 Se    0.58333   0.96145   0.07450   0.00000  Uiso   1.00
W3004  W     0.74383   0.02746   0.10108   0.00000  Uiso   1.00
Se3005 Se    0.75025   0.04025   0.12767   0.00000  Uiso   1.00
Se3006 Se    0.75025   0.04025   0.07450   0.00000  Uiso   1.00
W3007  W     0.73741   0.06584   0.10108   0.00000  Uiso   1.00
Se3008 Se    0.74383   0.07863   0.12767   0.00000  Uiso   1.00
Se3009 Se    0.74383   0.07863   0.07450   0.00000  Uiso   1.00
W3010  W     0.73099   0.10422   0.10108   0.00000  Uiso   1.00
Se3011 Se    0.73741   0.11702   0.12767   0.00000  Uiso   1.00
Se3012 Se    0.73741   0.11702   0.07450   0.00000  Uiso   1.00
W3013  W     0.72457   0.14261   0.10108   0.00000  Uiso   1.00
Se3014 Se    0.73099   0.15540   0.12767   0.00000  Uiso   1.00
Se3015 Se    0.73099   0.15540   0.07450   0.00000  Uiso   1.00
W3016  W     0.71815   0.18099   0.10108   0.00000  Uiso   1.00
Se3017 Se    0.72457   0.19378   0.12767   0.00000  Uiso   1.00
Se3018 Se    0.72457   0.19378   0.07450   0.00000  Uiso   1.00
W3019  W     0.71173   0.21937   0.10108   0.00000  Uiso   1.00
Se3020 Se    0.71815   0.23217   0.12767   0.00000  Uiso   1.00
Se3021 Se    0.71815   0.23217   0.07450   0.00000  Uiso   1.00
W3022  W     0.70531   0.25776   0.10108   0.00000  Uiso   1.00
Se3023 Se    0.71173   0.27055   0.12767   0.00000  Uiso   1.00
Se3024 Se    0.71173   0.27055   0.07450   0.00000  Uiso   1.00
W3025  W     0.69889   0.29614   0.10108   0.00000  Uiso   1.00
Se3026 Se    0.70531   0.30893   0.12767   0.00000  Uiso   1.00
Se3027 Se    0.70531   0.30893   0.07450   0.00000  Uiso   1.00
W3028  W     0.69247   0.33452   0.10108   0.00000  Uiso   1.00
Se3029 Se    0.69889   0.34732   0.12767   0.00000  Uiso   1.00
Se3030 Se    0.69889   0.34732   0.07450   0.00000  Uiso   1.00
W3031  W     0.68605   0.37291   0.10108   0.00000  Uiso   1.00
Se3032 Se    0.69247   0.38570   0.12767   0.00000  Uiso   1.00
Se3033 Se    0.69247   0.38570   0.07450   0.00000  Uiso   1.00
W3034  W     0.67963   0.41129   0.10108   0.00000  Uiso   1.00
Se3035 Se    0.68605   0.42408   0.12767   0.00000  Uiso   1.00
Se3036 Se    0.68605   0.42408   0.07450   0.00000  Uiso   1.00
W3037  W     0.67321   0.44967   0.10108   0.00000  Uiso   1.00
Se3038 Se    0.67963   0.46247   0.12767   0.00000  Uiso   1.00
Se3039 Se    0.67963   0.46247   0.07450   0.00000  Uiso   1.00
W3040  W     0.66679   0.48806   0.10108   0.00000  Uiso   1.00
Se3041 Se    0.67321   0.50085   0.12767   0.00000  Uiso   1.00
Se3042 Se    0.67321   0.50085   0.07450   0.00000  Uiso   1.00
W3043  W     0.66037   0.52644   0.10108   0.00000  Uiso   1.00
Se3044 Se    0.66679   0.53923   0.12767   0.00000  Uiso   1.00
Se3045 Se    0.66679   0.53923   0.07450   0.00000  Uiso   1.00
W3046  W     0.65395   0.56482   0.10108   0.00000  Uiso   1.00
Se3047 Se    0.66037   0.57762   0.12767   0.00000  Uiso   1.00
Se3048 Se    0.66037   0.57762   0.07450   0.00000  Uiso   1.00
W3049  W     0.64753   0.60321   0.10108   0.00000  Uiso   1.00
Se3050 Se    0.65395   0.61600   0.12767   0.00000  Uiso   1.00
Se3051 Se    0.65395   0.61600   0.07450   0.00000  Uiso   1.00
W3052  W     0.64111   0.64159   0.10108   0.00000  Uiso   1.00
Se3053 Se    0.64753   0.65438   0.12767   0.00000  Uiso   1.00
Se3054 Se    0.64753   0.65438   0.07450   0.00000  Uiso   1.00
W3055  W     0.63469   0.67997   0.10108   0.00000  Uiso   1.00
Se3056 Se    0.64111   0.69277   0.12767   0.00000  Uiso   1.00
Se3057 Se    0.64111   0.69277   0.07450   0.00000  Uiso   1.00
W3058  W     0.62827   0.71836   0.10108   0.00000  Uiso   1.00
Se3059 Se    0.63469   0.73115   0.12767   0.00000  Uiso   1.00
Se3060 Se    0.63469   0.73115   0.07450   0.00000  Uiso   1.00
W3061  W     0.62185   0.75674   0.10108   0.00000  Uiso   1.00
Se3062 Se    0.62827   0.76954   0.12767   0.00000  Uiso   1.00
Se3063 Se    0.62827   0.76954   0.07450   0.00000  Uiso   1.00
W3064  W     0.61543   0.79512   0.10108   0.00000  Uiso   1.00
Se3065 Se    0.62185   0.80792   0.12767   0.00000  Uiso   1.00
Se3066 Se    0.62185   0.80792   0.07450   0.00000  Uiso   1.00
W3067  W     0.60901   0.83351   0.10108   0.00000  Uiso   1.00
Se3068 Se    0.61543   0.84630   0.12767   0.00000  Uiso   1.00
Se3069 Se    0.61543   0.84630   0.07450   0.00000  Uiso   1.00
W3070  W     0.60259   0.87189   0.10108   0.00000  Uiso   1.00
Se3071 Se    0.60901   0.88469   0.12767   0.00000  Uiso   1.00
Se3072 Se    0.60901   0.88469   0.07450   0.00000  Uiso   1.00
W3073  W     0.59617   0.91027   0.10108   0.00000  Uiso   1.00
Se3074 Se    0.60259   0.92307   0.12767   0.00000  Uiso   1.00
Se3075 Se    0.60259   0.92307   0.07450   0.00000  Uiso   1.00
W3076  W     0.58975   0.94866   0.10108   0.00000  Uiso   1.00
Se3077 Se    0.59617   0.96145   0.12767   0.00000  Uiso   1.00
Se3078 Se    0.59617   0.96145   0.07450   0.00000  Uiso   1.00
W3079  W     0.75667   0.02746   0.10108   0.00000  Uiso   1.00
Se3080 Se    0.76309   0.04025   0.12767   0.00000  Uiso   1.00
Se3081 Se    0.76309   0.04025   0.07450   0.00000  Uiso   1.00
W3082  W     0.75025   0.06584   0.10108   0.00000  Uiso   1.00
Se3083 Se    0.75667   0.07863   0.12767   0.00000  Uiso   1.00
Se3084 Se    0.75667   0.07863   0.07450   0.00000  Uiso   1.00
W3085  W     0.74383   0.10422   0.10108   0.00000  Uiso   1.00
Se3086 Se    0.75025   0.11702   0.12767   0.00000  Uiso   1.00
Se3087 Se    0.75025   0.11702   0.07450   0.00000  Uiso   1.00
W3088  W     0.73741   0.14261   0.10108   0.00000  Uiso   1.00
Se3089 Se    0.74383   0.15540   0.12767   0.00000  Uiso   1.00
Se3090 Se    0.74383   0.15540   0.07450   0.00000  Uiso   1.00
W3091  W     0.73099   0.18099   0.10108   0.00000  Uiso   1.00
Se3092 Se    0.73741   0.19378   0.12767   0.00000  Uiso   1.00
Se3093 Se    0.73741   0.19378   0.07450   0.00000  Uiso   1.00
W3094  W     0.72457   0.21937   0.10108   0.00000  Uiso   1.00
Se3095 Se    0.73099   0.23217   0.12767   0.00000  Uiso   1.00
Se3096 Se    0.73099   0.23217   0.07450   0.00000  Uiso   1.00
W3097  W     0.71815   0.25776   0.10108   0.00000  Uiso   1.00
Se3098 Se    0.72457   0.27055   0.12767   0.00000  Uiso   1.00
Se3099 Se    0.72457   0.27055   0.07450   0.00000  Uiso   1.00
W3100  W     0.71173   0.29614   0.10108   0.00000  Uiso   1.00
Se3101 Se    0.71815   0.30893   0.12767   0.00000  Uiso   1.00
Se3102 Se    0.71815   0.30893   0.07450   0.00000  Uiso   1.00
W3103  W     0.70531   0.33452   0.10108   0.00000  Uiso   1.00
Se3104 Se    0.71173   0.34732   0.12767   0.00000  Uiso   1.00
Se3105 Se    0.71173   0.34732   0.07450   0.00000  Uiso   1.00
W3106  W     0.69889   0.37291   0.10108   0.00000  Uiso   1.00
Se3107 Se    0.70531   0.38570   0.12767   0.00000  Uiso   1.00
Se3108 Se    0.70531   0.38570   0.07450   0.00000  Uiso   1.00
W3109  W     0.69247   0.41129   0.10108   0.00000  Uiso   1.00
Se3110 Se    0.69889   0.42408   0.12767   0.00000  Uiso   1.00
Se3111 Se    0.69889   0.42408   0.07450   0.00000  Uiso   1.00
W3112  W     0.68605   0.44967   0.10108   0.00000  Uiso   1.00
Se3113 Se    0.69247   0.46247   0.12767   0.00000  Uiso   1.00
Se3114 Se    0.69247   0.46247   0.07450   0.00000  Uiso   1.00
W3115  W     0.67963   0.48806   0.10108   0.00000  Uiso   1.00
Se3116 Se    0.68605   0.50085   0.12767   0.00000  Uiso   1.00
Se3117 Se    0.68605   0.50085   0.07450   0.00000  Uiso   1.00
W3118  W     0.67321   0.52644   0.10108   0.00000  Uiso   1.00
Se3119 Se    0.67963   0.53923   0.12767   0.00000  Uiso   1.00
Se3120 Se    0.67963   0.53923   0.07450   0.00000  Uiso   1.00
W3121  W     0.66679   0.56482   0.10108   0.00000  Uiso   1.00
Se3122 Se    0.67321   0.57762   0.12767   0.00000  Uiso   1.00
Se3123 Se    0.67321   0.57762   0.07450   0.00000  Uiso   1.00
W3124  W     0.66037   0.60321   0.10108   0.00000  Uiso   1.00
Se3125 Se    0.66679   0.61600   0.12767   0.00000  Uiso   1.00
Se3126 Se    0.66679   0.61600   0.07450   0.00000  Uiso   1.00
W3127  W     0.65395   0.64159   0.10108   0.00000  Uiso   1.00
Se3128 Se    0.66037   0.65438   0.12767   0.00000  Uiso   1.00
Se3129 Se    0.66037   0.65438   0.07450   0.00000  Uiso   1.00
W3130  W     0.64753   0.67997   0.10108   0.00000  Uiso   1.00
Se3131 Se    0.65395   0.69277   0.12767   0.00000  Uiso   1.00
Se3132 Se    0.65395   0.69277   0.07450   0.00000  Uiso   1.00
W3133  W     0.64111   0.71836   0.10108   0.00000  Uiso   1.00
Se3134 Se    0.64753   0.73115   0.12767   0.00000  Uiso   1.00
Se3135 Se    0.64753   0.73115   0.07450   0.00000  Uiso   1.00
W3136  W     0.63469   0.75674   0.10108   0.00000  Uiso   1.00
Se3137 Se    0.64111   0.76954   0.12767   0.00000  Uiso   1.00
Se3138 Se    0.64111   0.76954   0.07450   0.00000  Uiso   1.00
W3139  W     0.62827   0.79512   0.10108   0.00000  Uiso   1.00
Se3140 Se    0.63469   0.80792   0.12767   0.00000  Uiso   1.00
Se3141 Se    0.63469   0.80792   0.07450   0.00000  Uiso   1.00
W3142  W     0.62185   0.83351   0.10108   0.00000  Uiso   1.00
Se3143 Se    0.62827   0.84630   0.12767   0.00000  Uiso   1.00
Se3144 Se    0.62827   0.84630   0.07450   0.00000  Uiso   1.00
W3145  W     0.61543   0.87189   0.10108   0.00000  Uiso   1.00
Se3146 Se    0.62185   0.88469   0.12767   0.00000  Uiso   1.00
Se3147 Se    0.62185   0.88469   0.07450   0.00000  Uiso   1.00
W3148  W     0.60901   0.91027   0.10108   0.00000  Uiso   1.00
Se3149 Se    0.61543   0.92307   0.12767   0.00000  Uiso   1.00
Se3150 Se    0.61543   0.92307   0.07450   0.00000  Uiso   1.00
W3151  W     0.60259   0.94866   0.10108   0.00000  Uiso   1.00
Se3152 Se    0.60901   0.96145   0.12767   0.00000  Uiso   1.00
Se3153 Se    0.60901   0.96145   0.07450   0.00000  Uiso   1.00
W3154  W     0.76951   0.02746   0.10108   0.00000  Uiso   1.00
Se3155 Se    0.77593   0.04025   0.12767   0.00000  Uiso   1.00
Se3156 Se    0.77593   0.04025   0.07450   0.00000  Uiso   1.00
W3157  W     0.76309   0.06584   0.10108   0.00000  Uiso   1.00
Se3158 Se    0.76951   0.07863   0.12767   0.00000  Uiso   1.00
Se3159 Se    0.76951   0.07863   0.07450   0.00000  Uiso   1.00
W3160  W     0.75667   0.10422   0.10108   0.00000  Uiso   1.00
Se3161 Se    0.76309   0.11702   0.12767   0.00000  Uiso   1.00
Se3162 Se    0.76309   0.11702   0.07450   0.00000  Uiso   1.00
W3163  W     0.75025   0.14261   0.10108   0.00000  Uiso   1.00
Se3164 Se    0.75667   0.15540   0.12767   0.00000  Uiso   1.00
Se3165 Se    0.75667   0.15540   0.07450   0.00000  Uiso   1.00
W3166  W     0.74383   0.18099   0.10108   0.00000  Uiso   1.00
Se3167 Se    0.75025   0.19378   0.12767   0.00000  Uiso   1.00
Se3168 Se    0.75025   0.19378   0.07450   0.00000  Uiso   1.00
W3169  W     0.73741   0.21937   0.10108   0.00000  Uiso   1.00
Se3170 Se    0.74383   0.23217   0.12767   0.00000  Uiso   1.00
Se3171 Se    0.74383   0.23217   0.07450   0.00000  Uiso   1.00
W3172  W     0.73099   0.25776   0.10108   0.00000  Uiso   1.00
Se3173 Se    0.73741   0.27055   0.12767   0.00000  Uiso   1.00
Se3174 Se    0.73741   0.27055   0.07450   0.00000  Uiso   1.00
W3175  W     0.72457   0.29614   0.10108   0.00000  Uiso   1.00
Se3176 Se    0.73099   0.30893   0.12767   0.00000  Uiso   1.00
Se3177 Se    0.73099   0.30893   0.07450   0.00000  Uiso   1.00
W3178  W     0.71815   0.33452   0.10108   0.00000  Uiso   1.00
Se3179 Se    0.72457   0.34732   0.12767   0.00000  Uiso   1.00
Se3180 Se    0.72457   0.34732   0.07450   0.00000  Uiso   1.00
W3181  W     0.71173   0.37291   0.10108   0.00000  Uiso   1.00
Se3182 Se    0.71815   0.38570   0.12767   0.00000  Uiso   1.00
Se3183 Se    0.71815   0.38570   0.07450   0.00000  Uiso   1.00
W3184  W     0.70531   0.41129   0.10108   0.00000  Uiso   1.00
Se3185 Se    0.71173   0.42408   0.12767   0.00000  Uiso   1.00
Se3186 Se    0.71173   0.42408   0.07450   0.00000  Uiso   1.00
W3187  W     0.69889   0.44967   0.10108   0.00000  Uiso   1.00
Se3188 Se    0.70531   0.46247   0.12767   0.00000  Uiso   1.00
Se3189 Se    0.70531   0.46247   0.07450   0.00000  Uiso   1.00
W3190  W     0.69247   0.48806   0.10108   0.00000  Uiso   1.00
Se3191 Se    0.69889   0.50085   0.12767   0.00000  Uiso   1.00
Se3192 Se    0.69889   0.50085   0.07450   0.00000  Uiso   1.00
W3193  W     0.68605   0.52644   0.10108   0.00000  Uiso   1.00
Se3194 Se    0.69247   0.53923   0.12767   0.00000  Uiso   1.00
Se3195 Se    0.69247   0.53923   0.07450   0.00000  Uiso   1.00
W3196  W     0.67963   0.56482   0.10108   0.00000  Uiso   1.00
Se3197 Se    0.68605   0.57762   0.12767   0.00000  Uiso   1.00
Se3198 Se    0.68605   0.57762   0.07450   0.00000  Uiso   1.00
W3199  W     0.67321   0.60321   0.10108   0.00000  Uiso   1.00
Se3200 Se    0.67963   0.61600   0.12767   0.00000  Uiso   1.00
Se3201 Se    0.67963   0.61600   0.07450   0.00000  Uiso   1.00
W3202  W     0.66679   0.64159   0.10108   0.00000  Uiso   1.00
Se3203 Se    0.67321   0.65438   0.12767   0.00000  Uiso   1.00
Se3204 Se    0.67321   0.65438   0.07450   0.00000  Uiso   1.00
W3205  W     0.66037   0.67997   0.10108   0.00000  Uiso   1.00
Se3206 Se    0.66679   0.69277   0.12767   0.00000  Uiso   1.00
Se3207 Se    0.66679   0.69277   0.07450   0.00000  Uiso   1.00
W3208  W     0.65395   0.71836   0.10108   0.00000  Uiso   1.00
Se3209 Se    0.66037   0.73115   0.12767   0.00000  Uiso   1.00
Se3210 Se    0.66037   0.73115   0.07450   0.00000  Uiso   1.00
W3211  W     0.64753   0.75674   0.10108   0.00000  Uiso   1.00
Se3212 Se    0.65395   0.76954   0.12767   0.00000  Uiso   1.00
Se3213 Se    0.65395   0.76954   0.07450   0.00000  Uiso   1.00
W3214  W     0.64111   0.79512   0.10108   0.00000  Uiso   1.00
Se3215 Se    0.64753   0.80792   0.12767   0.00000  Uiso   1.00
Se3216 Se    0.64753   0.80792   0.07450   0.00000  Uiso   1.00
W3217  W     0.63469   0.83351   0.10108   0.00000  Uiso   1.00
Se3218 Se    0.64111   0.84630   0.12767   0.00000  Uiso   1.00
Se3219 Se    0.64111   0.84630   0.07450   0.00000  Uiso   1.00
W3220  W     0.62827   0.87189   0.10108   0.00000  Uiso   1.00
Se3221 Se    0.63469   0.88469   0.12767   0.00000  Uiso   1.00
Se3222 Se    0.63469   0.88469   0.07450   0.00000  Uiso   1.00
W3223  W     0.62185   0.91027   0.10108   0.00000  Uiso   1.00
Se3224 Se    0.62827   0.92307   0.12767   0.00000  Uiso   1.00
Se3225 Se    0.62827   0.92307   0.07450   0.00000  Uiso   1.00
W3226  W     0.61543   0.94866   0.10108   0.00000  Uiso   1.00
Se3227 Se    0.62185   0.96145   0.12767   0.00000  Uiso   1.00
Se3228 Se    0.62185   0.96145   0.07450   0.00000  Uiso   1.00
W3229  W     0.78235   0.02746   0.10108   0.00000  Uiso   1.00
Se3230 Se    0.78877   0.04025   0.12767   0.00000  Uiso   1.00
Se3231 Se    0.78877   0.04025   0.07450   0.00000  Uiso   1.00
W3232  W     0.77593   0.06584   0.10108   0.00000  Uiso   1.00
Se3233 Se    0.78235   0.07863   0.12767   0.00000  Uiso   1.00
Se3234 Se    0.78235   0.07863   0.07450   0.00000  Uiso   1.00
W3235  W     0.76951   0.10422   0.10108   0.00000  Uiso   1.00
Se3236 Se    0.77593   0.11702   0.12767   0.00000  Uiso   1.00
Se3237 Se    0.77593   0.11702   0.07450   0.00000  Uiso   1.00
W3238  W     0.76309   0.14261   0.10108   0.00000  Uiso   1.00
Se3239 Se    0.76951   0.15540   0.12767   0.00000  Uiso   1.00
Se3240 Se    0.76951   0.15540   0.07450   0.00000  Uiso   1.00
W3241  W     0.75667   0.18099   0.10108   0.00000  Uiso   1.00
Se3242 Se    0.76309   0.19378   0.12767   0.00000  Uiso   1.00
Se3243 Se    0.76309   0.19378   0.07450   0.00000  Uiso   1.00
W3244  W     0.75025   0.21937   0.10108   0.00000  Uiso   1.00
Se3245 Se    0.75667   0.23217   0.12767   0.00000  Uiso   1.00
Se3246 Se    0.75667   0.23217   0.07450   0.00000  Uiso   1.00
W3247  W     0.74383   0.25776   0.10108   0.00000  Uiso   1.00
Se3248 Se    0.75025   0.27055   0.12767   0.00000  Uiso   1.00
Se3249 Se    0.75025   0.27055   0.07450   0.00000  Uiso   1.00
W3250  W     0.73741   0.29614   0.10108   0.00000  Uiso   1.00
Se3251 Se    0.74383   0.30893   0.12767   0.00000  Uiso   1.00
Se3252 Se    0.74383   0.30893   0.07450   0.00000  Uiso   1.00
W3253  W     0.73099   0.33452   0.10108   0.00000  Uiso   1.00
Se3254 Se    0.73741   0.34732   0.12767   0.00000  Uiso   1.00
Se3255 Se    0.73741   0.34732   0.07450   0.00000  Uiso   1.00
W3256  W     0.72457   0.37291   0.10108   0.00000  Uiso   1.00
Se3257 Se    0.73099   0.38570   0.12767   0.00000  Uiso   1.00
Se3258 Se    0.73099   0.38570   0.07450   0.00000  Uiso   1.00
W3259  W     0.71815   0.41129   0.10108   0.00000  Uiso   1.00
Se3260 Se    0.72457   0.42408   0.12767   0.00000  Uiso   1.00
Se3261 Se    0.72457   0.42408   0.07450   0.00000  Uiso   1.00
W3262  W     0.71173   0.44967   0.10108   0.00000  Uiso   1.00
Se3263 Se    0.71815   0.46247   0.12767   0.00000  Uiso   1.00
Se3264 Se    0.71815   0.46247   0.07450   0.00000  Uiso   1.00
W3265  W     0.70531   0.48806   0.10108   0.00000  Uiso   1.00
Se3266 Se    0.71173   0.50085   0.12767   0.00000  Uiso   1.00
Se3267 Se    0.71173   0.50085   0.07450   0.00000  Uiso   1.00
W3268  W     0.69889   0.52644   0.10108   0.00000  Uiso   1.00
Se3269 Se    0.70531   0.53923   0.12767   0.00000  Uiso   1.00
Se3270 Se    0.70531   0.53923   0.07450   0.00000  Uiso   1.00
W3271  W     0.69247   0.56482   0.10108   0.00000  Uiso   1.00
Se3272 Se    0.69889   0.57762   0.12767   0.00000  Uiso   1.00
Se3273 Se    0.69889   0.57762   0.07450   0.00000  Uiso   1.00
W3274  W     0.68605   0.60321   0.10108   0.00000  Uiso   1.00
Se3275 Se    0.69247   0.61600   0.12767   0.00000  Uiso   1.00
Se3276 Se    0.69247   0.61600   0.07450   0.00000  Uiso   1.00
W3277  W     0.67963   0.64159   0.10108   0.00000  Uiso   1.00
Se3278 Se    0.68605   0.65438   0.12767   0.00000  Uiso   1.00
Se3279 Se    0.68605   0.65438   0.07450   0.00000  Uiso   1.00
W3280  W     0.67321   0.67997   0.10108   0.00000  Uiso   1.00
Se3281 Se    0.67963   0.69277   0.12767   0.00000  Uiso   1.00
Se3282 Se    0.67963   0.69277   0.07450   0.00000  Uiso   1.00
W3283  W     0.66679   0.71836   0.10108   0.00000  Uiso   1.00
Se3284 Se    0.67321   0.73115   0.12767   0.00000  Uiso   1.00
Se3285 Se    0.67321   0.73115   0.07450   0.00000  Uiso   1.00
W3286  W     0.66037   0.75674   0.10108   0.00000  Uiso   1.00
Se3287 Se    0.66679   0.76954   0.12767   0.00000  Uiso   1.00
Se3288 Se    0.66679   0.76954   0.07450   0.00000  Uiso   1.00
W3289  W     0.65395   0.79512   0.10108   0.00000  Uiso   1.00
Se3290 Se    0.66037   0.80792   0.12767   0.00000  Uiso   1.00
Se3291 Se    0.66037   0.80792   0.07450   0.00000  Uiso   1.00
W3292  W     0.64753   0.83351   0.10108   0.00000  Uiso   1.00
Se3293 Se    0.65395   0.84630   0.12767   0.00000  Uiso   1.00
Se3294 Se    0.65395   0.84630   0.07450   0.00000  Uiso   1.00
W3295  W     0.64111   0.87189   0.10108   0.00000  Uiso   1.00
Se3296 Se    0.64753   0.88469   0.12767   0.00000  Uiso   1.00
Se3297 Se    0.64753   0.88469   0.07450   0.00000  Uiso   1.00
W3298  W     0.63469   0.91027   0.10108   0.00000  Uiso   1.00
Se3299 Se    0.64111   0.92307   0.12767   0.00000  Uiso   1.00
Se3300 Se    0.64111   0.92307   0.07450   0.00000  Uiso   1.00
W3301  W     0.62827   0.94866   0.10108   0.00000  Uiso   1.00
Se3302 Se    0.63469   0.96145   0.12767   0.00000  Uiso   1.00
Se3303 Se    0.63469   0.96145   0.07450   0.00000  Uiso   1.00
W3304  W     0.79519   0.02746   0.10108   0.00000  Uiso   1.00
Se3305 Se    0.80161   0.04025   0.12767   0.00000  Uiso   1.00
Se3306 Se    0.80161   0.04025   0.07450   0.00000  Uiso   1.00
W3307  W     0.78877   0.06584   0.10108   0.00000  Uiso   1.00
Se3308 Se    0.79519   0.07863   0.12767   0.00000  Uiso   1.00
Se3309 Se    0.79519   0.07863   0.07450   0.00000  Uiso   1.00
W3310  W     0.78235   0.10422   0.10108   0.00000  Uiso   1.00
Se3311 Se    0.78877   0.11702   0.12767   0.00000  Uiso   1.00
Se3312 Se    0.78877   0.11702   0.07450   0.00000  Uiso   1.00
W3313  W     0.77593   0.14261   0.10108   0.00000  Uiso   1.00
Se3314 Se    0.78235   0.15540   0.12767   0.00000  Uiso   1.00
Se3315 Se    0.78235   0.15540   0.07450   0.00000  Uiso   1.00
W3316  W     0.76951   0.18099   0.10108   0.00000  Uiso   1.00
Se3317 Se    0.77593   0.19378   0.12767   0.00000  Uiso   1.00
Se3318 Se    0.77593   0.19378   0.07450   0.00000  Uiso   1.00
W3319  W     0.76309   0.21937   0.10108   0.00000  Uiso   1.00
Se3320 Se    0.76951   0.23217   0.12767   0.00000  Uiso   1.00
Se3321 Se    0.76951   0.23217   0.07450   0.00000  Uiso   1.00
W3322  W     0.75667   0.25776   0.10108   0.00000  Uiso   1.00
Se3323 Se    0.76309   0.27055   0.12767   0.00000  Uiso   1.00
Se3324 Se    0.76309   0.27055   0.07450   0.00000  Uiso   1.00
W3325  W     0.75025   0.29614   0.10108   0.00000  Uiso   1.00
Se3326 Se    0.75667   0.30893   0.12767   0.00000  Uiso   1.00
Se3327 Se    0.75667   0.30893   0.07450   0.00000  Uiso   1.00
W3328  W     0.74383   0.33452   0.10108   0.00000  Uiso   1.00
Se3329 Se    0.75025   0.34732   0.12767   0.00000  Uiso   1.00
Se3330 Se    0.75025   0.34732   0.07450   0.00000  Uiso   1.00
W3331  W     0.73741   0.37291   0.10108   0.00000  Uiso   1.00
Se3332 Se    0.74383   0.38570   0.12767   0.00000  Uiso   1.00
Se3333 Se    0.74383   0.38570   0.07450   0.00000  Uiso   1.00
W3334  W     0.73099   0.41129   0.10108   0.00000  Uiso   1.00
Se3335 Se    0.73741   0.42408   0.12767   0.00000  Uiso   1.00
Se3336 Se    0.73741   0.42408   0.07450   0.00000  Uiso   1.00
W3337  W     0.72457   0.44967   0.10108   0.00000  Uiso   1.00
Se3338 Se    0.73099   0.46247   0.12767   0.00000  Uiso   1.00
Se3339 Se    0.73099   0.46247   0.07450   0.00000  Uiso   1.00
W3340  W     0.71815   0.48806   0.10108   0.00000  Uiso   1.00
Se3341 Se    0.72457   0.50085   0.12767   0.00000  Uiso   1.00
Se3342 Se    0.72457   0.50085   0.07450   0.00000  Uiso   1.00
W3343  W     0.71173   0.52644   0.10108   0.00000  Uiso   1.00
Se3344 Se    0.71815   0.53923   0.12767   0.00000  Uiso   1.00
Se3345 Se    0.71815   0.53923   0.07450   0.00000  Uiso   1.00
W3346  W     0.70531   0.56482   0.10108   0.00000  Uiso   1.00
Se3347 Se    0.71173   0.57762   0.12767   0.00000  Uiso   1.00
Se3348 Se    0.71173   0.57762   0.07450   0.00000  Uiso   1.00
W3349  W     0.69889   0.60321   0.10108   0.00000  Uiso   1.00
Se3350 Se    0.70531   0.61600   0.12767   0.00000  Uiso   1.00
Se3351 Se    0.70531   0.61600   0.07450   0.00000  Uiso   1.00
W3352  W     0.69247   0.64159   0.10108   0.00000  Uiso   1.00
Se3353 Se    0.69889   0.65438   0.12767   0.00000  Uiso   1.00
Se3354 Se    0.69889   0.65438   0.07450   0.00000  Uiso   1.00
W3355  W     0.68605   0.67997   0.10108   0.00000  Uiso   1.00
Se3356 Se    0.69247   0.69277   0.12767   0.00000  Uiso   1.00
Se3357 Se    0.69247   0.69277   0.07450   0.00000  Uiso   1.00
W3358  W     0.67963   0.71836   0.10108   0.00000  Uiso   1.00
Se3359 Se    0.68605   0.73115   0.12767   0.00000  Uiso   1.00
Se3360 Se    0.68605   0.73115   0.07450   0.00000  Uiso   1.00
W3361  W     0.67321   0.75674   0.10108   0.00000  Uiso   1.00
Se3362 Se    0.67963   0.76954   0.12767   0.00000  Uiso   1.00
Se3363 Se    0.67963   0.76954   0.07450   0.00000  Uiso   1.00
W3364  W     0.66679   0.79512   0.10108   0.00000  Uiso   1.00
Se3365 Se    0.67321   0.80792   0.12767   0.00000  Uiso   1.00
Se3366 Se    0.67321   0.80792   0.07450   0.00000  Uiso   1.00
W3367  W     0.66037   0.83351   0.10108   0.00000  Uiso   1.00
Se3368 Se    0.66679   0.84630   0.12767   0.00000  Uiso   1.00
Se3369 Se    0.66679   0.84630   0.07450   0.00000  Uiso   1.00
W3370  W     0.65395   0.87189   0.10108   0.00000  Uiso   1.00
Se3371 Se    0.66037   0.88469   0.12767   0.00000  Uiso   1.00
Se3372 Se    0.66037   0.88469   0.07450   0.00000  Uiso   1.00
W3373  W     0.64753   0.91027   0.10108   0.00000  Uiso   1.00
Se3374 Se    0.65395   0.92307   0.12767   0.00000  Uiso   1.00
Se3375 Se    0.65395   0.92307   0.07450   0.00000  Uiso   1.00
W3376  W     0.64111   0.94866   0.10108   0.00000  Uiso   1.00
Se3377 Se    0.64753   0.96145   0.12767   0.00000  Uiso   1.00
Se3378 Se    0.64753   0.96145   0.07450   0.00000  Uiso   1.00
W3379  W     0.80803   0.02746   0.10108   0.00000  Uiso   1.00
Se3380 Se    0.81445   0.04025   0.12767   0.00000  Uiso   1.00
Se3381 Se    0.81445   0.04025   0.07450   0.00000  Uiso   1.00
W3382  W     0.80161   0.06584   0.10108   0.00000  Uiso   1.00
Se3383 Se    0.80803   0.07863   0.12767   0.00000  Uiso   1.00
Se3384 Se    0.80803   0.07863   0.07450   0.00000  Uiso   1.00
W3385  W     0.79519   0.10422   0.10108   0.00000  Uiso   1.00
Se3386 Se    0.80161   0.11702   0.12767   0.00000  Uiso   1.00
Se3387 Se    0.80161   0.11702   0.07450   0.00000  Uiso   1.00
W3388  W     0.78877   0.14261   0.10108   0.00000  Uiso   1.00
Se3389 Se    0.79519   0.15540   0.12767   0.00000  Uiso   1.00
Se3390 Se    0.79519   0.15540   0.07450   0.00000  Uiso   1.00
W3391  W     0.78235   0.18099   0.10108   0.00000  Uiso   1.00
Se3392 Se    0.78877   0.19378   0.12767   0.00000  Uiso   1.00
Se3393 Se    0.78877   0.19378   0.07450   0.00000  Uiso   1.00
W3394  W     0.77593   0.21937   0.10108   0.00000  Uiso   1.00
Se3395 Se    0.78235   0.23217   0.12767   0.00000  Uiso   1.00
Se3396 Se    0.78235   0.23217   0.07450   0.00000  Uiso   1.00
W3397  W     0.76951   0.25776   0.10108   0.00000  Uiso   1.00
Se3398 Se    0.77593   0.27055   0.12767   0.00000  Uiso   1.00
Se3399 Se    0.77593   0.27055   0.07450   0.00000  Uiso   1.00
W3400  W     0.76309   0.29614   0.10108   0.00000  Uiso   1.00
Se3401 Se    0.76951   0.30893   0.12767   0.00000  Uiso   1.00
Se3402 Se    0.76951   0.30893   0.07450   0.00000  Uiso   1.00
W3403  W     0.75667   0.33452   0.10108   0.00000  Uiso   1.00
Se3404 Se    0.76309   0.34732   0.12767   0.00000  Uiso   1.00
Se3405 Se    0.76309   0.34732   0.07450   0.00000  Uiso   1.00
W3406  W     0.75025   0.37291   0.10108   0.00000  Uiso   1.00
Se3407 Se    0.75667   0.38570   0.12767   0.00000  Uiso   1.00
Se3408 Se    0.75667   0.38570   0.07450   0.00000  Uiso   1.00
W3409  W     0.74383   0.41129   0.10108   0.00000  Uiso   1.00
Se3410 Se    0.75025   0.42408   0.12767   0.00000  Uiso   1.00
Se3411 Se    0.75025   0.42408   0.07450   0.00000  Uiso   1.00
W3412  W     0.73741   0.44967   0.10108   0.00000  Uiso   1.00
Se3413 Se    0.74383   0.46247   0.12767   0.00000  Uiso   1.00
Se3414 Se    0.74383   0.46247   0.07450   0.00000  Uiso   1.00
W3415  W     0.73099   0.48806   0.10108   0.00000  Uiso   1.00
Se3416 Se    0.73741   0.50085   0.12767   0.00000  Uiso   1.00
Se3417 Se    0.73741   0.50085   0.07450   0.00000  Uiso   1.00
W3418  W     0.72457   0.52644   0.10108   0.00000  Uiso   1.00
Se3419 Se    0.73099   0.53923   0.12767   0.00000  Uiso   1.00
Se3420 Se    0.73099   0.53923   0.07450   0.00000  Uiso   1.00
W3421  W     0.71815   0.56482   0.10108   0.00000  Uiso   1.00
Se3422 Se    0.72457   0.57762   0.12767   0.00000  Uiso   1.00
Se3423 Se    0.72457   0.57762   0.07450   0.00000  Uiso   1.00
W3424  W     0.71173   0.60321   0.10108   0.00000  Uiso   1.00
Se3425 Se    0.71815   0.61600   0.12767   0.00000  Uiso   1.00
Se3426 Se    0.71815   0.61600   0.07450   0.00000  Uiso   1.00
W3427  W     0.70531   0.64159   0.10108   0.00000  Uiso   1.00
Se3428 Se    0.71173   0.65438   0.12767   0.00000  Uiso   1.00
Se3429 Se    0.71173   0.65438   0.07450   0.00000  Uiso   1.00
W3430  W     0.69889   0.67997   0.10108   0.00000  Uiso   1.00
Se3431 Se    0.70531   0.69277   0.12767   0.00000  Uiso   1.00
Se3432 Se    0.70531   0.69277   0.07450   0.00000  Uiso   1.00
W3433  W     0.69247   0.71836   0.10108   0.00000  Uiso   1.00
Se3434 Se    0.69889   0.73115   0.12767   0.00000  Uiso   1.00
Se3435 Se    0.69889   0.73115   0.07450   0.00000  Uiso   1.00
W3436  W     0.68605   0.75674   0.10108   0.00000  Uiso   1.00
Se3437 Se    0.69247   0.76954   0.12767   0.00000  Uiso   1.00
Se3438 Se    0.69247   0.76954   0.07450   0.00000  Uiso   1.00
W3439  W     0.67963   0.79512   0.10108   0.00000  Uiso   1.00
Se3440 Se    0.68605   0.80792   0.12767   0.00000  Uiso   1.00
Se3441 Se    0.68605   0.80792   0.07450   0.00000  Uiso   1.00
W3442  W     0.67321   0.83351   0.10108   0.00000  Uiso   1.00
Se3443 Se    0.67963   0.84630   0.12767   0.00000  Uiso   1.00
Se3444 Se    0.67963   0.84630   0.07450   0.00000  Uiso   1.00
W3445  W     0.66679   0.87189   0.10108   0.00000  Uiso   1.00
Se3446 Se    0.67321   0.88469   0.12767   0.00000  Uiso   1.00
Se3447 Se    0.67321   0.88469   0.07450   0.00000  Uiso   1.00
W3448  W     0.66037   0.91027   0.10108   0.00000  Uiso   1.00
Se3449 Se    0.66679   0.92307   0.12767   0.00000  Uiso   1.00
Se3450 Se    0.66679   0.92307   0.07450   0.00000  Uiso   1.00
W3451  W     0.65395   0.94866   0.10108   0.00000  Uiso   1.00
Se3452 Se    0.66037   0.96145   0.12767   0.00000  Uiso   1.00
Se3453 Se    0.66037   0.96145   0.07450   0.00000  Uiso   1.00
W3454  W     0.82087   0.02746   0.10108   0.00000  Uiso   1.00
Se3455 Se    0.82729   0.04025   0.12767   0.00000  Uiso   1.00
Se3456 Se    0.82729   0.04025   0.07450   0.00000  Uiso   1.00
W3457  W     0.81445   0.06584   0.10108   0.00000  Uiso   1.00
Se3458 Se    0.82087   0.07863   0.12767   0.00000  Uiso   1.00
Se3459 Se    0.82087   0.07863   0.07450   0.00000  Uiso   1.00
W3460  W     0.80803   0.10422   0.10108   0.00000  Uiso   1.00
Se3461 Se    0.81445   0.11702   0.12767   0.00000  Uiso   1.00
Se3462 Se    0.81445   0.11702   0.07450   0.00000  Uiso   1.00
W3463  W     0.80161   0.14261   0.10108   0.00000  Uiso   1.00
Se3464 Se    0.80803   0.15540   0.12767   0.00000  Uiso   1.00
Se3465 Se    0.80803   0.15540   0.07450   0.00000  Uiso   1.00
W3466  W     0.79519   0.18099   0.10108   0.00000  Uiso   1.00
Se3467 Se    0.80161   0.19378   0.12767   0.00000  Uiso   1.00
Se3468 Se    0.80161   0.19378   0.07450   0.00000  Uiso   1.00
W3469  W     0.78877   0.21937   0.10108   0.00000  Uiso   1.00
Se3470 Se    0.79519   0.23217   0.12767   0.00000  Uiso   1.00
Se3471 Se    0.79519   0.23217   0.07450   0.00000  Uiso   1.00
W3472  W     0.78235   0.25776   0.10108   0.00000  Uiso   1.00
Se3473 Se    0.78877   0.27055   0.12767   0.00000  Uiso   1.00
Se3474 Se    0.78877   0.27055   0.07450   0.00000  Uiso   1.00
W3475  W     0.77593   0.29614   0.10108   0.00000  Uiso   1.00
Se3476 Se    0.78235   0.30893   0.12767   0.00000  Uiso   1.00
Se3477 Se    0.78235   0.30893   0.07450   0.00000  Uiso   1.00
W3478  W     0.76951   0.33452   0.10108   0.00000  Uiso   1.00
Se3479 Se    0.77593   0.34732   0.12767   0.00000  Uiso   1.00
Se3480 Se    0.77593   0.34732   0.07450   0.00000  Uiso   1.00
W3481  W     0.76309   0.37291   0.10108   0.00000  Uiso   1.00
Se3482 Se    0.76951   0.38570   0.12767   0.00000  Uiso   1.00
Se3483 Se    0.76951   0.38570   0.07450   0.00000  Uiso   1.00
W3484  W     0.75667   0.41129   0.10108   0.00000  Uiso   1.00
Se3485 Se    0.76309   0.42408   0.12767   0.00000  Uiso   1.00
Se3486 Se    0.76309   0.42408   0.07450   0.00000  Uiso   1.00
W3487  W     0.75025   0.44967   0.10108   0.00000  Uiso   1.00
Se3488 Se    0.75667   0.46247   0.12767   0.00000  Uiso   1.00
Se3489 Se    0.75667   0.46247   0.07450   0.00000  Uiso   1.00
W3490  W     0.74383   0.48806   0.10108   0.00000  Uiso   1.00
Se3491 Se    0.75025   0.50085   0.12767   0.00000  Uiso   1.00
Se3492 Se    0.75025   0.50085   0.07450   0.00000  Uiso   1.00
W3493  W     0.73741   0.52644   0.10108   0.00000  Uiso   1.00
Se3494 Se    0.74383   0.53923   0.12767   0.00000  Uiso   1.00
Se3495 Se    0.74383   0.53923   0.07450   0.00000  Uiso   1.00
W3496  W     0.73099   0.56482   0.10108   0.00000  Uiso   1.00
Se3497 Se    0.73741   0.57762   0.12767   0.00000  Uiso   1.00
Se3498 Se    0.73741   0.57762   0.07450   0.00000  Uiso   1.00
W3499  W     0.72457   0.60321   0.10108   0.00000  Uiso   1.00
Se3500 Se    0.73099   0.61600   0.12767   0.00000  Uiso   1.00
Se3501 Se    0.73099   0.61600   0.07450   0.00000  Uiso   1.00
W3502  W     0.71815   0.64159   0.10108   0.00000  Uiso   1.00
Se3503 Se    0.72457   0.65438   0.12767   0.00000  Uiso   1.00
Se3504 Se    0.72457   0.65438   0.07450   0.00000  Uiso   1.00
W3505  W     0.71173   0.67997   0.10108   0.00000  Uiso   1.00
Se3506 Se    0.71815   0.69277   0.12767   0.00000  Uiso   1.00
Se3507 Se    0.71815   0.69277   0.07450   0.00000  Uiso   1.00
W3508  W     0.70531   0.71836   0.10108   0.00000  Uiso   1.00
Se3509 Se    0.71173   0.73115   0.12767   0.00000  Uiso   1.00
Se3510 Se    0.71173   0.73115   0.07450   0.00000  Uiso   1.00
W3511  W     0.69889   0.75674   0.10108   0.00000  Uiso   1.00
Se3512 Se    0.70531   0.76954   0.12767   0.00000  Uiso   1.00
Se3513 Se    0.70531   0.76954   0.07450   0.00000  Uiso   1.00
W3514  W     0.69247   0.79512   0.10108   0.00000  Uiso   1.00
Se3515 Se    0.69889   0.80792   0.12767   0.00000  Uiso   1.00
Se3516 Se    0.69889   0.80792   0.07450   0.00000  Uiso   1.00
W3517  W     0.68605   0.83351   0.10108   0.00000  Uiso   1.00
Se3518 Se    0.69247   0.84630   0.12767   0.00000  Uiso   1.00
Se3519 Se    0.69247   0.84630   0.07450   0.00000  Uiso   1.00
W3520  W     0.67963   0.87189   0.10108   0.00000  Uiso   1.00
Se3521 Se    0.68605   0.88469   0.12767   0.00000  Uiso   1.00
Se3522 Se    0.68605   0.88469   0.07450   0.00000  Uiso   1.00
W3523  W     0.67321   0.91027   0.10108   0.00000  Uiso   1.00
Se3524 Se    0.67963   0.92307   0.12767   0.00000  Uiso   1.00
Se3525 Se    0.67963   0.92307   0.07450   0.00000  Uiso   1.00
W3526  W     0.66679   0.94866   0.10108   0.00000  Uiso   1.00
Se3527 Se    0.67321   0.96145   0.12767   0.00000  Uiso   1.00
Se3528 Se    0.67321   0.96145   0.07450   0.00000  Uiso   1.00
W3529  W     0.83371   0.02746   0.10108   0.00000  Uiso   1.00
Se3530 Se    0.84013   0.04025   0.12767   0.00000  Uiso   1.00
Se3531 Se    0.84013   0.04025   0.07450   0.00000  Uiso   1.00
W3532  W     0.82729   0.06584   0.10108   0.00000  Uiso   1.00
Se3533 Se    0.83371   0.07863   0.12767   0.00000  Uiso   1.00
Se3534 Se    0.83371   0.07863   0.07450   0.00000  Uiso   1.00
W3535  W     0.82087   0.10422   0.10108   0.00000  Uiso   1.00
Se3536 Se    0.82729   0.11702   0.12767   0.00000  Uiso   1.00
Se3537 Se    0.82729   0.11702   0.07450   0.00000  Uiso   1.00
W3538  W     0.81445   0.14261   0.10108   0.00000  Uiso   1.00
Se3539 Se    0.82087   0.15540   0.12767   0.00000  Uiso   1.00
Se3540 Se    0.82087   0.15540   0.07450   0.00000  Uiso   1.00
W3541  W     0.80803   0.18099   0.10108   0.00000  Uiso   1.00
Se3542 Se    0.81445   0.19378   0.12767   0.00000  Uiso   1.00
Se3543 Se    0.81445   0.19378   0.07450   0.00000  Uiso   1.00
W3544  W     0.80161   0.21937   0.10108   0.00000  Uiso   1.00
Se3545 Se    0.80803   0.23217   0.12767   0.00000  Uiso   1.00
Se3546 Se    0.80803   0.23217   0.07450   0.00000  Uiso   1.00
W3547  W     0.79519   0.25776   0.10108   0.00000  Uiso   1.00
Se3548 Se    0.80161   0.27055   0.12767   0.00000  Uiso   1.00
Se3549 Se    0.80161   0.27055   0.07450   0.00000  Uiso   1.00
W3550  W     0.78877   0.29614   0.10108   0.00000  Uiso   1.00
Se3551 Se    0.79519   0.30893   0.12767   0.00000  Uiso   1.00
Se3552 Se    0.79519   0.30893   0.07450   0.00000  Uiso   1.00
W3553  W     0.78235   0.33452   0.10108   0.00000  Uiso   1.00
Se3554 Se    0.78877   0.34732   0.12767   0.00000  Uiso   1.00
Se3555 Se    0.78877   0.34732   0.07450   0.00000  Uiso   1.00
W3556  W     0.77593   0.37291   0.10108   0.00000  Uiso   1.00
Se3557 Se    0.78235   0.38570   0.12767   0.00000  Uiso   1.00
Se3558 Se    0.78235   0.38570   0.07450   0.00000  Uiso   1.00
W3559  W     0.76951   0.41129   0.10108   0.00000  Uiso   1.00
Se3560 Se    0.77593   0.42408   0.12767   0.00000  Uiso   1.00
Se3561 Se    0.77593   0.42408   0.07450   0.00000  Uiso   1.00
W3562  W     0.76309   0.44967   0.10108   0.00000  Uiso   1.00
Se3563 Se    0.76951   0.46247   0.12767   0.00000  Uiso   1.00
Se3564 Se    0.76951   0.46247   0.07450   0.00000  Uiso   1.00
W3565  W     0.75667   0.48806   0.10108   0.00000  Uiso   1.00
Se3566 Se    0.76309   0.50085   0.12767   0.00000  Uiso   1.00
Se3567 Se    0.76309   0.50085   0.07450   0.00000  Uiso   1.00
W3568  W     0.75025   0.52644   0.10108   0.00000  Uiso   1.00
Se3569 Se    0.75667   0.53923   0.12767   0.00000  Uiso   1.00
Se3570 Se    0.75667   0.53923   0.07450   0.00000  Uiso   1.00
W3571  W     0.74383   0.56482   0.10108   0.00000  Uiso   1.00
Se3572 Se    0.75025   0.57762   0.12767   0.00000  Uiso   1.00
Se3573 Se    0.75025   0.57762   0.07450   0.00000  Uiso   1.00
W3574  W     0.73741   0.60321   0.10108   0.00000  Uiso   1.00
Se3575 Se    0.74383   0.61600   0.12767   0.00000  Uiso   1.00
Se3576 Se    0.74383   0.61600   0.07450   0.00000  Uiso   1.00
W3577  W     0.73099   0.64159   0.10108   0.00000  Uiso   1.00
Se3578 Se    0.73741   0.65438   0.12767   0.00000  Uiso   1.00
Se3579 Se    0.73741   0.65438   0.07450   0.00000  Uiso   1.00
W3580  W     0.72457   0.67997   0.10108   0.00000  Uiso   1.00
Se3581 Se    0.73099   0.69277   0.12767   0.00000  Uiso   1.00
Se3582 Se    0.73099   0.69277   0.07450   0.00000  Uiso   1.00
W3583  W     0.71815   0.71836   0.10108   0.00000  Uiso   1.00
Se3584 Se    0.72457   0.73115   0.12767   0.00000  Uiso   1.00
Se3585 Se    0.72457   0.73115   0.07450   0.00000  Uiso   1.00
W3586  W     0.71173   0.75674   0.10108   0.00000  Uiso   1.00
Se3587 Se    0.71815   0.76954   0.12767   0.00000  Uiso   1.00
Se3588 Se    0.71815   0.76954   0.07450   0.00000  Uiso   1.00
W3589  W     0.70531   0.79512   0.10108   0.00000  Uiso   1.00
Se3590 Se    0.71173   0.80792   0.12767   0.00000  Uiso   1.00
Se3591 Se    0.71173   0.80792   0.07450   0.00000  Uiso   1.00
W3592  W     0.69889   0.83351   0.10108   0.00000  Uiso   1.00
Se3593 Se    0.70531   0.84630   0.12767   0.00000  Uiso   1.00
Se3594 Se    0.70531   0.84630   0.07450   0.00000  Uiso   1.00
W3595  W     0.69247   0.87189   0.10108   0.00000  Uiso   1.00
Se3596 Se    0.69889   0.88469   0.12767   0.00000  Uiso   1.00
Se3597 Se    0.69889   0.88469   0.07450   0.00000  Uiso   1.00
W3598  W     0.68605   0.91027   0.10108   0.00000  Uiso   1.00
Se3599 Se    0.69247   0.92307   0.12767   0.00000  Uiso   1.00
Se3600 Se    0.69247   0.92307   0.07450   0.00000  Uiso   1.00
W3601  W     0.67963   0.94866   0.10108   0.00000  Uiso   1.00
Se3602 Se    0.68605   0.96145   0.12767   0.00000  Uiso   1.00
Se3603 Se    0.68605   0.96145   0.07450   0.00000  Uiso   1.00
W3604  W     0.84655   0.02746   0.10108   0.00000  Uiso   1.00
Se3605 Se    0.85297   0.04025   0.12767   0.00000  Uiso   1.00
Se3606 Se    0.85297   0.04025   0.07450   0.00000  Uiso   1.00
W3607  W     0.84013   0.06584   0.10108   0.00000  Uiso   1.00
Se3608 Se    0.84655   0.07863   0.12767   0.00000  Uiso   1.00
Se3609 Se    0.84655   0.07863   0.07450   0.00000  Uiso   1.00
W3610  W     0.83371   0.10422   0.10108   0.00000  Uiso   1.00
Se3611 Se    0.84013   0.11702   0.12767   0.00000  Uiso   1.00
Se3612 Se    0.84013   0.11702   0.07450   0.00000  Uiso   1.00
W3613  W     0.82729   0.14261   0.10108   0.00000  Uiso   1.00
Se3614 Se    0.83371   0.15540   0.12767   0.00000  Uiso   1.00
Se3615 Se    0.83371   0.15540   0.07450   0.00000  Uiso   1.00
W3616  W     0.82087   0.18099   0.10108   0.00000  Uiso   1.00
Se3617 Se    0.82729   0.19378   0.12767   0.00000  Uiso   1.00
Se3618 Se    0.82729   0.19378   0.07450   0.00000  Uiso   1.00
W3619  W     0.81445   0.21937   0.10108   0.00000  Uiso   1.00
Se3620 Se    0.82087   0.23217   0.12767   0.00000  Uiso   1.00
Se3621 Se    0.82087   0.23217   0.07450   0.00000  Uiso   1.00
W3622  W     0.80803   0.25776   0.10108   0.00000  Uiso   1.00
Se3623 Se    0.81445   0.27055   0.12767   0.00000  Uiso   1.00
Se3624 Se    0.81445   0.27055   0.07450   0.00000  Uiso   1.00
W3625  W     0.80161   0.29614   0.10108   0.00000  Uiso   1.00
Se3626 Se    0.80803   0.30893   0.12767   0.00000  Uiso   1.00
Se3627 Se    0.80803   0.30893   0.07450   0.00000  Uiso   1.00
W3628  W     0.79519   0.33452   0.10108   0.00000  Uiso   1.00
Se3629 Se    0.80161   0.34732   0.12767   0.00000  Uiso   1.00
Se3630 Se    0.80161   0.34732   0.07450   0.00000  Uiso   1.00
W3631  W     0.78877   0.37291   0.10108   0.00000  Uiso   1.00
Se3632 Se    0.79519   0.38570   0.12767   0.00000  Uiso   1.00
Se3633 Se    0.79519   0.38570   0.07450   0.00000  Uiso   1.00
W3634  W     0.78235   0.41129   0.10108   0.00000  Uiso   1.00
Se3635 Se    0.78877   0.42408   0.12767   0.00000  Uiso   1.00
Se3636 Se    0.78877   0.42408   0.07450   0.00000  Uiso   1.00
W3637  W     0.77593   0.44967   0.10108   0.00000  Uiso   1.00
Se3638 Se    0.78235   0.46247   0.12767   0.00000  Uiso   1.00
Se3639 Se    0.78235   0.46247   0.07450   0.00000  Uiso   1.00
W3640  W     0.76951   0.48806   0.10108   0.00000  Uiso   1.00
Se3641 Se    0.77593   0.50085   0.12767   0.00000  Uiso   1.00
Se3642 Se    0.77593   0.50085   0.07450   0.00000  Uiso   1.00
W3643  W     0.76309   0.52644   0.10108   0.00000  Uiso   1.00
Se3644 Se    0.76951   0.53923   0.12767   0.00000  Uiso   1.00
Se3645 Se    0.76951   0.53923   0.07450   0.00000  Uiso   1.00
W3646  W     0.75667   0.56482   0.10108   0.00000  Uiso   1.00
Se3647 Se    0.76309   0.57762   0.12767   0.00000  Uiso   1.00
Se3648 Se    0.76309   0.57762   0.07450   0.00000  Uiso   1.00
W3649  W     0.75025   0.60321   0.10108   0.00000  Uiso   1.00
Se3650 Se    0.75667   0.61600   0.12767   0.00000  Uiso   1.00
Se3651 Se    0.75667   0.61600   0.07450   0.00000  Uiso   1.00
W3652  W     0.74383   0.64159   0.10108   0.00000  Uiso   1.00
Se3653 Se    0.75025   0.65438   0.12767   0.00000  Uiso   1.00
Se3654 Se    0.75025   0.65438   0.07450   0.00000  Uiso   1.00
W3655  W     0.73741   0.67997   0.10108   0.00000  Uiso   1.00
Se3656 Se    0.74383   0.69277   0.12767   0.00000  Uiso   1.00
Se3657 Se    0.74383   0.69277   0.07450   0.00000  Uiso   1.00
W3658  W     0.73099   0.71836   0.10108   0.00000  Uiso   1.00
Se3659 Se    0.73741   0.73115   0.12767   0.00000  Uiso   1.00
Se3660 Se    0.73741   0.73115   0.07450   0.00000  Uiso   1.00
W3661  W     0.72457   0.75674   0.10108   0.00000  Uiso   1.00
Se3662 Se    0.73099   0.76954   0.12767   0.00000  Uiso   1.00
Se3663 Se    0.73099   0.76954   0.07450   0.00000  Uiso   1.00
W3664  W     0.71815   0.79512   0.10108   0.00000  Uiso   1.00
Se3665 Se    0.72457   0.80792   0.12767   0.00000  Uiso   1.00
Se3666 Se    0.72457   0.80792   0.07450   0.00000  Uiso   1.00
W3667  W     0.71173   0.83351   0.10108   0.00000  Uiso   1.00
Se3668 Se    0.71815   0.84630   0.12767   0.00000  Uiso   1.00
Se3669 Se    0.71815   0.84630   0.07450   0.00000  Uiso   1.00
W3670  W     0.70531   0.87189   0.10108   0.00000  Uiso   1.00
Se3671 Se    0.71173   0.88469   0.12767   0.00000  Uiso   1.00
Se3672 Se    0.71173   0.88469   0.07450   0.00000  Uiso   1.00
W3673  W     0.69889   0.91027   0.10108   0.00000  Uiso   1.00
Se3674 Se    0.70531   0.92307   0.12767   0.00000  Uiso   1.00
Se3675 Se    0.70531   0.92307   0.07450   0.00000  Uiso   1.00
W3676  W     0.69247   0.94866   0.10108   0.00000  Uiso   1.00
Se3677 Se    0.69889   0.96145   0.12767   0.00000  Uiso   1.00
Se3678 Se    0.69889   0.96145   0.07450   0.00000  Uiso   1.00
W3679  W     0.85939   0.02746   0.10108   0.00000  Uiso   1.00
Se3680 Se    0.86581   0.04025   0.12767   0.00000  Uiso   1.00
Se3681 Se    0.86581   0.04025   0.07450   0.00000  Uiso   1.00
W3682  W     0.85297   0.06584   0.10108   0.00000  Uiso   1.00
Se3683 Se    0.85939   0.07863   0.12767   0.00000  Uiso   1.00
Se3684 Se    0.85939   0.07863   0.07450   0.00000  Uiso   1.00
W3685  W     0.84655   0.10422   0.10108   0.00000  Uiso   1.00
Se3686 Se    0.85297   0.11702   0.12767   0.00000  Uiso   1.00
Se3687 Se    0.85297   0.11702   0.07450   0.00000  Uiso   1.00
W3688  W     0.84013   0.14261   0.10108   0.00000  Uiso   1.00
Se3689 Se    0.84655   0.15540   0.12767   0.00000  Uiso   1.00
Se3690 Se    0.84655   0.15540   0.07450   0.00000  Uiso   1.00
W3691  W     0.83371   0.18099   0.10108   0.00000  Uiso   1.00
Se3692 Se    0.84013   0.19378   0.12767   0.00000  Uiso   1.00
Se3693 Se    0.84013   0.19378   0.07450   0.00000  Uiso   1.00
W3694  W     0.82729   0.21937   0.10108   0.00000  Uiso   1.00
Se3695 Se    0.83371   0.23217   0.12767   0.00000  Uiso   1.00
Se3696 Se    0.83371   0.23217   0.07450   0.00000  Uiso   1.00
W3697  W     0.82087   0.25776   0.10108   0.00000  Uiso   1.00
Se3698 Se    0.82729   0.27055   0.12767   0.00000  Uiso   1.00
Se3699 Se    0.82729   0.27055   0.07450   0.00000  Uiso   1.00
W3700  W     0.81445   0.29614   0.10108   0.00000  Uiso   1.00
Se3701 Se    0.82087   0.30893   0.12767   0.00000  Uiso   1.00
Se3702 Se    0.82087   0.30893   0.07450   0.00000  Uiso   1.00
W3703  W     0.80803   0.33452   0.10108   0.00000  Uiso   1.00
Se3704 Se    0.81445   0.34732   0.12767   0.00000  Uiso   1.00
Se3705 Se    0.81445   0.34732   0.07450   0.00000  Uiso   1.00
W3706  W     0.80161   0.37291   0.10108   0.00000  Uiso   1.00
Se3707 Se    0.80803   0.38570   0.12767   0.00000  Uiso   1.00
Se3708 Se    0.80803   0.38570   0.07450   0.00000  Uiso   1.00
W3709  W     0.79519   0.41129   0.10108   0.00000  Uiso   1.00
Se3710 Se    0.80161   0.42408   0.12767   0.00000  Uiso   1.00
Se3711 Se    0.80161   0.42408   0.07450   0.00000  Uiso   1.00
W3712  W     0.78877   0.44967   0.10108   0.00000  Uiso   1.00
Se3713 Se    0.79519   0.46247   0.12767   0.00000  Uiso   1.00
Se3714 Se    0.79519   0.46247   0.07450   0.00000  Uiso   1.00
W3715  W     0.78235   0.48806   0.10108   0.00000  Uiso   1.00
Se3716 Se    0.78877   0.50085   0.12767   0.00000  Uiso   1.00
Se3717 Se    0.78877   0.50085   0.07450   0.00000  Uiso   1.00
W3718  W     0.77593   0.52644   0.10108   0.00000  Uiso   1.00
Se3719 Se    0.78235   0.53923   0.12767   0.00000  Uiso   1.00
Se3720 Se    0.78235   0.53923   0.07450   0.00000  Uiso   1.00
W3721  W     0.76951   0.56482   0.10108   0.00000  Uiso   1.00
Se3722 Se    0.77593   0.57762   0.12767   0.00000  Uiso   1.00
Se3723 Se    0.77593   0.57762   0.07450   0.00000  Uiso   1.00
W3724  W     0.76309   0.60321   0.10108   0.00000  Uiso   1.00
Se3725 Se    0.76951   0.61600   0.12767   0.00000  Uiso   1.00
Se3726 Se    0.76951   0.61600   0.07450   0.00000  Uiso   1.00
W3727  W     0.75667   0.64159   0.10108   0.00000  Uiso   1.00
Se3728 Se    0.76309   0.65438   0.12767   0.00000  Uiso   1.00
Se3729 Se    0.76309   0.65438   0.07450   0.00000  Uiso   1.00
W3730  W     0.75025   0.67997   0.10108   0.00000  Uiso   1.00
Se3731 Se    0.75667   0.69277   0.12767   0.00000  Uiso   1.00
Se3732 Se    0.75667   0.69277   0.07450   0.00000  Uiso   1.00
W3733  W     0.74383   0.71836   0.10108   0.00000  Uiso   1.00
Se3734 Se    0.75025   0.73115   0.12767   0.00000  Uiso   1.00
Se3735 Se    0.75025   0.73115   0.07450   0.00000  Uiso   1.00
W3736  W     0.73741   0.75674   0.10108   0.00000  Uiso   1.00
Se3737 Se    0.74383   0.76954   0.12767   0.00000  Uiso   1.00
Se3738 Se    0.74383   0.76954   0.07450   0.00000  Uiso   1.00
W3739  W     0.73099   0.79512   0.10108   0.00000  Uiso   1.00
Se3740 Se    0.73741   0.80792   0.12767   0.00000  Uiso   1.00
Se3741 Se    0.73741   0.80792   0.07450   0.00000  Uiso   1.00
W3742  W     0.72457   0.83351   0.10108   0.00000  Uiso   1.00
Se3743 Se    0.73099   0.84630   0.12767   0.00000  Uiso   1.00
Se3744 Se    0.73099   0.84630   0.07450   0.00000  Uiso   1.00
W3745  W     0.71815   0.87189   0.10108   0.00000  Uiso   1.00
Se3746 Se    0.72457   0.88469   0.12767   0.00000  Uiso   1.00
Se3747 Se    0.72457   0.88469   0.07450   0.00000  Uiso   1.00
W3748  W     0.71173   0.91027   0.10108   0.00000  Uiso   1.00
Se3749 Se    0.71815   0.92307   0.12767   0.00000  Uiso   1.00
Se3750 Se    0.71815   0.92307   0.07450   0.00000  Uiso   1.00
W3751  W     0.70531   0.94866   0.10108   0.00000  Uiso   1.00
Se3752 Se    0.71173   0.96145   0.12767   0.00000  Uiso   1.00
Se3753 Se    0.71173   0.96145   0.07450   0.00000  Uiso   1.00
W3754  W     0.87223   0.02746   0.10108   0.00000  Uiso   1.00
Se3755 Se    0.87865   0.04025   0.12767   0.00000  Uiso   1.00
Se3756 Se    0.87865   0.04025   0.07450   0.00000  Uiso   1.00
W3757  W     0.86581   0.06584   0.10108   0.00000  Uiso   1.00
Se3758 Se    0.87223   0.07863   0.12767   0.00000  Uiso   1.00
Se3759 Se    0.87223   0.07863   0.07450   0.00000  Uiso   1.00
W3760  W     0.85939   0.10422   0.10108   0.00000  Uiso   1.00
Se3761 Se    0.86581   0.11702   0.12767   0.00000  Uiso   1.00
Se3762 Se    0.86581   0.11702   0.07450   0.00000  Uiso   1.00
W3763  W     0.85297   0.14261   0.10108   0.00000  Uiso   1.00
Se3764 Se    0.85939   0.15540   0.12767   0.00000  Uiso   1.00
Se3765 Se    0.85939   0.15540   0.07450   0.00000  Uiso   1.00
W3766  W     0.84655   0.18099   0.10108   0.00000  Uiso   1.00
Se3767 Se    0.85297   0.19378   0.12767   0.00000  Uiso   1.00
Se3768 Se    0.85297   0.19378   0.07450   0.00000  Uiso   1.00
W3769  W     0.84013   0.21937   0.10108   0.00000  Uiso   1.00
Se3770 Se    0.84655   0.23217   0.12767   0.00000  Uiso   1.00
Se3771 Se    0.84655   0.23217   0.07450   0.00000  Uiso   1.00
W3772  W     0.83371   0.25776   0.10108   0.00000  Uiso   1.00
Se3773 Se    0.84013   0.27055   0.12767   0.00000  Uiso   1.00
Se3774 Se    0.84013   0.27055   0.07450   0.00000  Uiso   1.00
W3775  W     0.82729   0.29614   0.10108   0.00000  Uiso   1.00
Se3776 Se    0.83371   0.30893   0.12767   0.00000  Uiso   1.00
Se3777 Se    0.83371   0.30893   0.07450   0.00000  Uiso   1.00
W3778  W     0.82087   0.33452   0.10108   0.00000  Uiso   1.00
Se3779 Se    0.82729   0.34732   0.12767   0.00000  Uiso   1.00
Se3780 Se    0.82729   0.34732   0.07450   0.00000  Uiso   1.00
W3781  W     0.81445   0.37291   0.10108   0.00000  Uiso   1.00
Se3782 Se    0.82087   0.38570   0.12767   0.00000  Uiso   1.00
Se3783 Se    0.82087   0.38570   0.07450   0.00000  Uiso   1.00
W3784  W     0.80803   0.41129   0.10108   0.00000  Uiso   1.00
Se3785 Se    0.81445   0.42408   0.12767   0.00000  Uiso   1.00
Se3786 Se    0.81445   0.42408   0.07450   0.00000  Uiso   1.00
W3787  W     0.80161   0.44967   0.10108   0.00000  Uiso   1.00
Se3788 Se    0.80803   0.46247   0.12767   0.00000  Uiso   1.00
Se3789 Se    0.80803   0.46247   0.07450   0.00000  Uiso   1.00
W3790  W     0.79519   0.48806   0.10108   0.00000  Uiso   1.00
Se3791 Se    0.80161   0.50085   0.12767   0.00000  Uiso   1.00
Se3792 Se    0.80161   0.50085   0.07450   0.00000  Uiso   1.00
W3793  W     0.78877   0.52644   0.10108   0.00000  Uiso   1.00
Se3794 Se    0.79519   0.53923   0.12767   0.00000  Uiso   1.00
Se3795 Se    0.79519   0.53923   0.07450   0.00000  Uiso   1.00
W3796  W     0.78235   0.56482   0.10108   0.00000  Uiso   1.00
Se3797 Se    0.78877   0.57762   0.12767   0.00000  Uiso   1.00
Se3798 Se    0.78877   0.57762   0.07450   0.00000  Uiso   1.00
W3799  W     0.77593   0.60321   0.10108   0.00000  Uiso   1.00
Se3800 Se    0.78235   0.61600   0.12767   0.00000  Uiso   1.00
Se3801 Se    0.78235   0.61600   0.07450   0.00000  Uiso   1.00
W3802  W     0.76951   0.64159   0.10108   0.00000  Uiso   1.00
Se3803 Se    0.77593   0.65438   0.12767   0.00000  Uiso   1.00
Se3804 Se    0.77593   0.65438   0.07450   0.00000  Uiso   1.00
W3805  W     0.76309   0.67997   0.10108   0.00000  Uiso   1.00
Se3806 Se    0.76951   0.69277   0.12767   0.00000  Uiso   1.00
Se3807 Se    0.76951   0.69277   0.07450   0.00000  Uiso   1.00
W3808  W     0.75667   0.71836   0.10108   0.00000  Uiso   1.00
Se3809 Se    0.76309   0.73115   0.12767   0.00000  Uiso   1.00
Se3810 Se    0.76309   0.73115   0.07450   0.00000  Uiso   1.00
W3811  W     0.75025   0.75674   0.10108   0.00000  Uiso   1.00
Se3812 Se    0.75667   0.76954   0.12767   0.00000  Uiso   1.00
Se3813 Se    0.75667   0.76954   0.07450   0.00000  Uiso   1.00
W3814  W     0.74383   0.79512   0.10108   0.00000  Uiso   1.00
Se3815 Se    0.75025   0.80792   0.12767   0.00000  Uiso   1.00
Se3816 Se    0.75025   0.80792   0.07450   0.00000  Uiso   1.00
W3817  W     0.73741   0.83351   0.10108   0.00000  Uiso   1.00
Se3818 Se    0.74383   0.84630   0.12767   0.00000  Uiso   1.00
Se3819 Se    0.74383   0.84630   0.07450   0.00000  Uiso   1.00
W3820  W     0.73099   0.87189   0.10108   0.00000  Uiso   1.00
Se3821 Se    0.73741   0.88469   0.12767   0.00000  Uiso   1.00
Se3822 Se    0.73741   0.88469   0.07450   0.00000  Uiso   1.00
W3823  W     0.72457   0.91027   0.10108   0.00000  Uiso   1.00
Se3824 Se    0.73099   0.92307   0.12767   0.00000  Uiso   1.00
Se3825 Se    0.73099   0.92307   0.07450   0.00000  Uiso   1.00
W3826  W     0.71815   0.94866   0.10108   0.00000  Uiso   1.00
Se3827 Se    0.72457   0.96145   0.12767   0.00000  Uiso   1.00
Se3828 Se    0.72457   0.96145   0.07450   0.00000  Uiso   1.00
W3829  W     0.88507   0.02746   0.10108   0.00000  Uiso   1.00
Se3830 Se    0.89149   0.04025   0.12767   0.00000  Uiso   1.00
Se3831 Se    0.89149   0.04025   0.07450   0.00000  Uiso   1.00
W3832  W     0.87865   0.06584   0.10108   0.00000  Uiso   1.00
Se3833 Se    0.88507   0.07863   0.12767   0.00000  Uiso   1.00
Se3834 Se    0.88507   0.07863   0.07450   0.00000  Uiso   1.00
W3835  W     0.87223   0.10422   0.10108   0.00000  Uiso   1.00
Se3836 Se    0.87865   0.11702   0.12767   0.00000  Uiso   1.00
Se3837 Se    0.87865   0.11702   0.07450   0.00000  Uiso   1.00
W3838  W     0.86581   0.14261   0.10108   0.00000  Uiso   1.00
Se3839 Se    0.87223   0.15540   0.12767   0.00000  Uiso   1.00
Se3840 Se    0.87223   0.15540   0.07450   0.00000  Uiso   1.00
W3841  W     0.85939   0.18099   0.10108   0.00000  Uiso   1.00
Se3842 Se    0.86581   0.19378   0.12767   0.00000  Uiso   1.00
Se3843 Se    0.86581   0.19378   0.07450   0.00000  Uiso   1.00
W3844  W     0.85297   0.21937   0.10108   0.00000  Uiso   1.00
Se3845 Se    0.85939   0.23217   0.12767   0.00000  Uiso   1.00
Se3846 Se    0.85939   0.23217   0.07450   0.00000  Uiso   1.00
W3847  W     0.84655   0.25776   0.10108   0.00000  Uiso   1.00
Se3848 Se    0.85297   0.27055   0.12767   0.00000  Uiso   1.00
Se3849 Se    0.85297   0.27055   0.07450   0.00000  Uiso   1.00
W3850  W     0.84013   0.29614   0.10108   0.00000  Uiso   1.00
Se3851 Se    0.84655   0.30893   0.12767   0.00000  Uiso   1.00
Se3852 Se    0.84655   0.30893   0.07450   0.00000  Uiso   1.00
W3853  W     0.83371   0.33452   0.10108   0.00000  Uiso   1.00
Se3854 Se    0.84013   0.34732   0.12767   0.00000  Uiso   1.00
Se3855 Se    0.84013   0.34732   0.07450   0.00000  Uiso   1.00
W3856  W     0.82729   0.37291   0.10108   0.00000  Uiso   1.00
Se3857 Se    0.83371   0.38570   0.12767   0.00000  Uiso   1.00
Se3858 Se    0.83371   0.38570   0.07450   0.00000  Uiso   1.00
W3859  W     0.82087   0.41129   0.10108   0.00000  Uiso   1.00
Se3860 Se    0.82729   0.42408   0.12767   0.00000  Uiso   1.00
Se3861 Se    0.82729   0.42408   0.07450   0.00000  Uiso   1.00
W3862  W     0.81445   0.44967   0.10108   0.00000  Uiso   1.00
Se3863 Se    0.82087   0.46247   0.12767   0.00000  Uiso   1.00
Se3864 Se    0.82087   0.46247   0.07450   0.00000  Uiso   1.00
W3865  W     0.80803   0.48806   0.10108   0.00000  Uiso   1.00
Se3866 Se    0.81445   0.50085   0.12767   0.00000  Uiso   1.00
Se3867 Se    0.81445   0.50085   0.07450   0.00000  Uiso   1.00
W3868  W     0.80161   0.52644   0.10108   0.00000  Uiso   1.00
Se3869 Se    0.80803   0.53923   0.12767   0.00000  Uiso   1.00
Se3870 Se    0.80803   0.53923   0.07450   0.00000  Uiso   1.00
W3871  W     0.79519   0.56482   0.10108   0.00000  Uiso   1.00
Se3872 Se    0.80161   0.57762   0.12767   0.00000  Uiso   1.00
Se3873 Se    0.80161   0.57762   0.07450   0.00000  Uiso   1.00
W3874  W     0.78877   0.60321   0.10108   0.00000  Uiso   1.00
Se3875 Se    0.79519   0.61600   0.12767   0.00000  Uiso   1.00
Se3876 Se    0.79519   0.61600   0.07450   0.00000  Uiso   1.00
W3877  W     0.78235   0.64159   0.10108   0.00000  Uiso   1.00
Se3878 Se    0.78877   0.65438   0.12767   0.00000  Uiso   1.00
Se3879 Se    0.78877   0.65438   0.07450   0.00000  Uiso   1.00
W3880  W     0.77593   0.67997   0.10108   0.00000  Uiso   1.00
Se3881 Se    0.78235   0.69277   0.12767   0.00000  Uiso   1.00
Se3882 Se    0.78235   0.69277   0.07450   0.00000  Uiso   1.00
W3883  W     0.76951   0.71836   0.10108   0.00000  Uiso   1.00
Se3884 Se    0.77593   0.73115   0.12767   0.00000  Uiso   1.00
Se3885 Se    0.77593   0.73115   0.07450   0.00000  Uiso   1.00
W3886  W     0.76309   0.75674   0.10108   0.00000  Uiso   1.00
Se3887 Se    0.76951   0.76954   0.12767   0.00000  Uiso   1.00
Se3888 Se    0.76951   0.76954   0.07450   0.00000  Uiso   1.00
W3889  W     0.75667   0.79512   0.10108   0.00000  Uiso   1.00
Se3890 Se    0.76309   0.80792   0.12767   0.00000  Uiso   1.00
Se3891 Se    0.76309   0.80792   0.07450   0.00000  Uiso   1.00
W3892  W     0.75025   0.83351   0.10108   0.00000  Uiso   1.00
Se3893 Se    0.75667   0.84630   0.12767   0.00000  Uiso   1.00
Se3894 Se    0.75667   0.84630   0.07450   0.00000  Uiso   1.00
W3895  W     0.74383   0.87189   0.10108   0.00000  Uiso   1.00
Se3896 Se    0.75025   0.88469   0.12767   0.00000  Uiso   1.00
Se3897 Se    0.75025   0.88469   0.07450   0.00000  Uiso   1.00
W3898  W     0.73741   0.91027   0.10108   0.00000  Uiso   1.00
Se3899 Se    0.74383   0.92307   0.12767   0.00000  Uiso   1.00
Se3900 Se    0.74383   0.92307   0.07450   0.00000  Uiso   1.00
W3901  W     0.73099   0.94866   0.10108   0.00000  Uiso   1.00
Se3902 Se    0.73741   0.96145   0.12767   0.00000  Uiso   1.00
Se3903 Se    0.73741   0.96145   0.07450   0.00000  Uiso   1.00
loop_
_geom_bond_atom_site_label_1
_geom_bond_atom_site_label_2
_geom_bond_distance
_geom_bond_site_symmetry_2
_ccdc_geom_bond_type
W1     S2      2.420   .     S
W1     S3      2.420   .     S
S2     W79     2.420   .     S
S2     W82     2.420   .     S
S3     W79     2.420   .     S
S3     W82     2.420   .     S
W4     S5      2.420   .     S
W4     S6      2.420   .     S
S5     W82     2.420   .     S
S5     W85     2.420   .     S
S6     W82     2.420   .     S
S6     W85     2.420   .     S
W7     S8      2.420   .     S
W7     S9      2.420   .     S
S8     W85     2.420   .     S
S8     W88     2.420   .     S
S9     W85     2.420   .     S
S9     W88     2.420   .     S
W10    S11     2.420   .     S
W10    S12     2.420   .     S
S11    W88     2.420   .     S
S11    W91     2.420   .     S
S12    W88     2.420   .     S
S12    W91     2.420   .     S
W13    S14     2.420   .     S
W13    S15     2.420   .     S
S14    W91     2.420   .     S
S14    W94     2.420   .     S
S15    W91     2.420   .     S
S15    W94     2.420   .     S
W16    S17     2.420   .     S
W16    S18     2.420   .     S
S17    W94     2.420   .     S
S17    W97     2.420   .     S
S18    W94     2.420   .     S
S18    W97     2.420   .     S
W19    S20     2.420   .     S
W19    S21     2.420   .     S
S20    W97     2.420   .     S
S20    W100    2.420   .     S
S21    W97     2.420   .     S
S21    W100    2.420   .     S
W22    S23     2.420   .     S
W22    S24     2.420   .     S
S23    W100    2.420   .     S
S23    W103    2.420   .     S
S24    W100    2.420   .     S
S24    W103    2.420   .     S
W25    S26     2.420   .     S
W25    S27     2.420   .     S
S26    W103    2.420   .     S
S26    W106    2.420   .     S
S27    W103    2.420   .     S
S27    W106    2.420   .     S
W28    S29     2.420   .     S
W28    S30     2.420   .     S
S29    W106    2.420   .     S
S29    W109    2.420   .     S
S30    W106    2.420   .     S
S30    W109    2.420   .     S
W31    S32     2.420   .     S
W31    S33     2.420   .     S
S32    W109    2.420   .     S
S32    W112    2.420   .     S
S33    W109    2.420   .     S
S33    W112    2.420   .     S
W34    S35     2.420   .     S
W34    S36     2.420   .     S
S35    W112    2.420   .     S
S35    W115    2.420   .     S
S36    W112    2.420   .     S
S36    W115    2.420   .     S
W37    S38     2.420   .     S
W37    S39     2.420   .     S
S38    W115    2.420   .     S
S38    W118    2.420   .     S
S39    W115    2.420   .     S
S39    W118    2.420   .     S
W40    S41     2.420   .     S
W40    S42     2.420   .     S
S41    W118    2.420   .     S
S41    W121    2.420   .     S
S42    W118    2.420   .     S
S42    W121    2.420   .     S
W43    S44     2.420   .     S
W43    S45     2.420   .     S
S44    W121    2.420   .     S
S44    W124    2.420   .     S
S45    W121    2.420   .     S
S45    W124    2.420   .     S
W46    S47     2.420   .     S
W46    S48     2.420   .     S
S47    W124    2.420   .     S
S47    W127    2.420   .     S
S48    W124    2.420   .     S
S48    W127    2.420   .     S
W49    S50     2.420   .     S
W49    S51     2.420   .     S
S50    W127    2.420   .     S
S50    W130    2.420   .     S
S51    W127    2.420   .     S
S51    W130    2.420   .     S
W52    S53     2.420   .     S
W52    S54     2.420   .     S
S53    W130    2.420   .     S
S53    W133    2.420   .     S
S54    W130    2.420   .     S
S54    W133    2.420   .     S
W55    S56     2.420   .     S
W55    S57     2.420   .     S
S56    W133    2.420   .     S
S56    W136    2.420   .     S
S57    W133    2.420   .     S
S57    W136    2.420   .     S
W58    S59     2.420   .     S
W58    S60     2.420   .     S
S59    W136    2.420   .     S
S59    W139    2.420   .     S
S60    W136    2.420   .     S
S60    W139    2.420   .     S
W61    S62     2.420   .     S
W61    S63     2.420   .     S
S62    W139    2.420   .     S
S62    W142    2.420   .     S
S63    W139    2.420   .     S
S63    W142    2.420   .     S
W64    S65     2.420   .     S
W64    S66     2.420   .     S
S65    W142    2.420   .     S
S65    W145    2.420   .     S
S66    W142    2.420   .     S
S66    W145    2.420   .     S
W67    S68     2.420   .     S
W67    S69     2.420   .     S
S68    W145    2.420   .     S
S68    W148    2.420   .     S
S69    W145    2.420   .     S
S69    W148    2.420   .     S
W70    S71     2.420   .     S
W70    S72     2.420   .     S
S71    W148    2.420   .     S
S71    W151    2.420   .     S
S72    W148    2.420   .     S
S72    W151    2.420   .     S
W73    S74     2.420   .     S
W73    S75     2.420   .     S
S74    W151    2.420   .     S
S74    W154    2.420   .     S
S75    W151    2.420   .     S
S75    W154    2.420   .     S
W76    S77     2.420   .     S
W76    S78     2.420   .     S
S77    W154    2.420   .     S
S78    W154    2.420   .     S
W79    S80     2.420   .     S
W79    S81     2.420   .     S
S80    W157    2.420   .     S
S80    W160    2.420   .     S
S81    W157    2.420   .     S
S81    W160    2.420   .     S
W82    S83     2.420   .     S
W82    S84     2.420   .     S
S83    W160    2.420   .     S
S83    W163    2.420   .     S
S84    W160    2.420   .     S
S84    W163    2.420   .     S
W85    S86     2.420   .     S
W85    S87     2.420   .     S
S86    W163    2.420   .     S
S86    W166    2.420   .     S
S87    W163    2.420   .     S
S87    W166    2.420   .     S
W88    S89     2.420   .     S
W88    S90     2.420   .     S
S89    W166    2.420   .     S
S89    W169    2.420   .     S
S90    W166    2.420   .     S
S90    W169    2.420   .     S
W91    S92     2.420   .     S
W91    S93     2.420   .     S
S92    W169    2.420   .     S
S92    W172    2.420   .     S
S93    W169    2.420   .     S
S93    W172    2.420   .     S
W94    S95     2.420   .     S
W94    S96     2.420   .     S
S95    W172    2.420   .     S
S95    W175    2.420   .     S
S96    W172    2.420   .     S
S96    W175    2.420   .     S
W97    S98     2.420   .     S
W97    S99     2.420   .     S
S98    W175    2.420   .     S
S98    W178    2.420   .     S
S99    W175    2.420   .     S
S99    W178    2.420   .     S
W100   S101    2.420   .     S
W100   S102    2.420   .     S
S101   W178    2.420   .     S
S101   W181    2.420   .     S
S102   W178    2.420   .     S
S102   W181    2.420   .     S
W103   S104    2.420   .     S
W103   S105    2.420   .     S
S104   W181    2.420   .     S
S104   W184    2.420   .     S
S105   W181    2.420   .     S
S105   W184    2.420   .     S
W106   S107    2.420   .     S
W106   S108    2.420   .     S
S107   W184    2.420   .     S
S107   W187    2.420   .     S
S108   W184    2.420   .     S
S108   W187    2.420   .     S
W109   S110    2.420   .     S
W109   S111    2.420   .     S
S110   W187    2.420   .     S
S110   W190    2.420   .     S
S111   W187    2.420   .     S
S111   W190    2.420   .     S
W112   S113    2.420   .     S
W112   S114    2.420   .     S
S113   W190    2.420   .     S
S113   W193    2.420   .     S
S114   W190    2.420   .     S
S114   W193    2.420   .     S
W115   S116    2.420   .     S
W115   S117    2.420   .     S
S116   W193    2.420   .     S
S116   W196    2.420   .     S
S117   W193    2.420   .     S
S117   W196    2.420   .     S
W118   S119    2.420   .     S
W118   S120    2.420   .     S
S119   W196    2.420   .     S
S119   W199    2.420   .     S
S120   W196    2.420   .     S
S120   W199    2.420   .     S
W121   S122    2.420   .     S
W121   S123    2.420   .     S
S122   W199    2.420   .     S
S122   W202    2.420   .     S
S123   W199    2.420   .     S
S123   W202    2.420   .     S
W124   S125    2.420   .     S
W124   S126    2.420   .     S
S125   W202    2.420   .     S
S125   W205    2.420   .     S
S126   W202    2.420   .     S
S126   W205    2.420   .     S
W127   S128    2.420   .     S
W127   S129    2.420   .     S
S128   W205    2.420   .     S
S128   W208    2.420   .     S
S129   W205    2.420   .     S
S129   W208    2.420   .     S
W130   S131    2.420   .     S
W130   S132    2.420   .     S
S131   W208    2.420   .     S
S131   W211    2.420   .     S
S132   W208    2.420   .     S
S132   W211    2.420   .     S
W133   S134    2.420   .     S
W133   S135    2.420   .     S
S134   W211    2.420   .     S
S134   W214    2.420   .     S
S135   W211    2.420   .     S
S135   W214    2.420   .     S
W136   S137    2.420   .     S
W136   S138    2.420   .     S
S137   W214    2.420   .     S
S137   W217    2.420   .     S
S138   W214    2.420   .     S
S138   W217    2.420   .     S
W139   S140    2.420   .     S
W139   S141    2.420   .     S
S140   W217    2.420   .     S
S140   W220    2.420   .     S
S141   W217    2.420   .     S
S141   W220    2.420   .     S
W142   S143    2.420   .     S
W142   S144    2.420   .     S
S143   W220    2.420   .     S
S143   W223    2.420   .     S
S144   W220    2.420   .     S
S144   W223    2.420   .     S
W145   S146    2.420   .     S
W145   S147    2.420   .     S
S146   W223    2.420   .     S
S146   W226    2.420   .     S
S147   W223    2.420   .     S
S147   W226    2.420   .     S
W148   S149    2.420   .     S
W148   S150    2.420   .     S
S149   W226    2.420   .     S
S149   W229    2.420   .     S
S150   W226    2.420   .     S
S150   W229    2.420   .     S
W151   S152    2.420   .     S
W151   S153    2.420   .     S
S152   W229    2.420   .     S
S152   W232    2.420   .     S
S153   W229    2.420   .     S
S153   W232    2.420   .     S
W154   S155    2.420   .     S
W154   S156    2.420   .     S
S155   W232    2.420   .     S
S156   W232    2.420   .     S
W157   S158    2.420   .     S
W157   S159    2.420   .     S
S158   W235    2.420   .     S
S158   W238    2.420   .     S
S159   W235    2.420   .     S
S159   W238    2.420   .     S
W160   S161    2.420   .     S
W160   S162    2.420   .     S
S161   W238    2.420   .     S
S161   W241    2.420   .     S
S162   W238    2.420   .     S
S162   W241    2.420   .     S
W163   S164    2.420   .     S
W163   S165    2.420   .     S
S164   W241    2.420   .     S
S164   W244    2.420   .     S
S165   W241    2.420   .     S
S165   W244    2.420   .     S
W166   S167    2.420   .     S
W166   S168    2.420   .     S
S167   W244    2.420   .     S
S167   W247    2.420   .     S
S168   W244    2.420   .     S
S168   W247    2.420   .     S
W169   S170    2.420   .     S
W169   S171    2.420   .     S
S170   W247    2.420   .     S
S170   W250    2.420   .     S
S171   W247    2.420   .     S
S171   W250    2.420   .     S
W172   S173    2.420   .     S
W172   S174    2.420   .     S
S173   W250    2.420   .     S
S173   W253    2.420   .     S
S174   W250    2.420   .     S
S174   W253    2.420   .     S
W175   S176    2.420   .     S
W175   S177    2.420   .     S
S176   W253    2.420   .     S
S176   W256    2.420   .     S
S177   W253    2.420   .     S
S177   W256    2.420   .     S
W178   S179    2.420   .     S
W178   S180    2.420   .     S
S179   W256    2.420   .     S
S179   W259    2.420   .     S
S180   W256    2.420   .     S
S180   W259    2.420   .     S
W181   S182    2.420   .     S
W181   S183    2.420   .     S
S182   W259    2.420   .     S
S182   W262    2.420   .     S
S183   W259    2.420   .     S
S183   W262    2.420   .     S
W184   S185    2.420   .     S
W184   S186    2.420   .     S
S185   W262    2.420   .     S
S185   W265    2.420   .     S
S186   W262    2.420   .     S
S186   W265    2.420   .     S
W187   S188    2.420   .     S
W187   S189    2.420   .     S
S188   W265    2.420   .     S
S188   W268    2.420   .     S
S189   W265    2.420   .     S
S189   W268    2.420   .     S
W190   S191    2.420   .     S
W190   S192    2.420   .     S
S191   W268    2.420   .     S
S191   W271    2.420   .     S
S192   W268    2.420   .     S
S192   W271    2.420   .     S
W193   S194    2.420   .     S
W193   S195    2.420   .     S
S194   W271    2.420   .     S
S194   W274    2.420   .     S
S195   W271    2.420   .     S
S195   W274    2.420   .     S
W196   S197    2.420   .     S
W196   S198    2.420   .     S
S197   W274    2.420   .     S
S197   W277    2.420   .     S
S198   W274    2.420   .     S
S198   W277    2.420   .     S
W199   S200    2.420   .     S
W199   S201    2.420   .     S
S200   W277    2.420   .     S
S200   W280    2.420   .     S
S201   W277    2.420   .     S
S201   W280    2.420   .     S
W202   S203    2.420   .     S
W202   S204    2.420   .     S
S203   W280    2.420   .     S
S203   W283    2.420   .     S
S204   W280    2.420   .     S
S204   W283    2.420   .     S
W205   S206    2.420   .     S
W205   S207    2.420   .     S
S206   W283    2.420   .     S
S206   W286    2.420   .     S
S207   W283    2.420   .     S
S207   W286    2.420   .     S
W208   S209    2.420   .     S
W208   S210    2.420   .     S
S209   W286    2.420   .     S
S209   W289    2.420   .     S
S210   W286    2.420   .     S
S210   W289    2.420   .     S
W211   S212    2.420   .     S
W211   S213    2.420   .     S
S212   W289    2.420   .     S
S212   W292    2.420   .     S
S213   W289    2.420   .     S
S213   W292    2.420   .     S
W214   S215    2.420   .     S
W214   S216    2.420   .     S
S215   W292    2.420   .     S
S215   W295    2.420   .     S
S216   W292    2.420   .     S
S216   W295    2.420   .     S
W217   S218    2.420   .     S
W217   S219    2.420   .     S
S218   W295    2.420   .     S
S218   W298    2.420   .     S
S219   W295    2.420   .     S
S219   W298    2.420   .     S
W220   S221    2.420   .     S
W220   S222    2.420   .     S
S221   W298    2.420   .     S
S221   W301    2.420   .     S
S222   W298    2.420   .     S
S222   W301    2.420   .     S
W223   S224    2.420   .     S
W223   S225    2.420   .     S
S224   W301    2.420   .     S
S224   W304    2.420   .     S
S225   W301    2.420   .     S
S225   W304    2.420   .     S
W226   S227    2.420   .     S
W226   S228    2.420   .     S
S227   W304    2.420   .     S
S227   W307    2.420   .     S
S228   W304    2.420   .     S
S228   W307    2.420   .     S
W229   S230    2.420   .     S
W229   S231    2.420   .     S
S230   W307    2.420   .     S
S230   W310    2.420   .     S
S231   W307    2.420   .     S
S231   W310    2.420   .     S
W232   S233    2.420   .     S
W232   S234    2.420   .     S
S233   W310    2.420   .     S
S234   W310    2.420   .     S
W235   S236    2.420   .     S
W235   S237    2.420   .     S
S236   W313    2.420   .     S
S236   W316    2.420   .     S
S237   W313    2.420   .     S
S237   W316    2.420   .     S
W238   S239    2.420   .     S
W238   S240    2.420   .     S
S239   W316    2.420   .     S
S239   W319    2.420   .     S
S240   W316    2.420   .     S
S240   W319    2.420   .     S
W241   S242    2.420   .     S
W241   S243    2.420   .     S
S242   W319    2.420   .     S
S242   W322    2.420   .     S
S243   W319    2.420   .     S
S243   W322    2.420   .     S
W244   S245    2.420   .     S
W244   S246    2.420   .     S
S245   W322    2.420   .     S
S245   W325    2.420   .     S
S246   W322    2.420   .     S
S246   W325    2.420   .     S
W247   S248    2.420   .     S
W247   S249    2.420   .     S
S248   W325    2.420   .     S
S248   W328    2.420   .     S
S249   W325    2.420   .     S
S249   W328    2.420   .     S
W250   S251    2.420   .     S
W250   S252    2.420   .     S
S251   W328    2.420   .     S
S251   W331    2.420   .     S
S252   W328    2.420   .     S
S252   W331    2.420   .     S
W253   S254    2.420   .     S
W253   S255    2.420   .     S
S254   W331    2.420   .     S
S254   W334    2.420   .     S
S255   W331    2.420   .     S
S255   W334    2.420   .     S
W256   S257    2.420   .     S
W256   S258    2.420   .     S
S257   W334    2.420   .     S
S257   W337    2.420   .     S
S258   W334    2.420   .     S
S258   W337    2.420   .     S
W259   S260    2.420   .     S
W259   S261    2.420   .     S
S260   W337    2.420   .     S
S260   W340    2.420   .     S
S261   W337    2.420   .     S
S261   W340    2.420   .     S
W262   S263    2.420   .     S
W262   S264    2.420   .     S
S263   W340    2.420   .     S
S263   W343    2.420   .     S
S264   W340    2.420   .     S
S264   W343    2.420   .     S
W265   S266    2.420   .     S
W265   S267    2.420   .     S
S266   W343    2.420   .     S
S266   W346    2.420   .     S
S267   W343    2.420   .     S
S267   W346    2.420   .     S
W268   S269    2.420   .     S
W268   S270    2.420   .     S
S269   W346    2.420   .     S
S269   W349    2.420   .     S
S270   W346    2.420   .     S
S270   W349    2.420   .     S
W271   S272    2.420   .     S
W271   S273    2.420   .     S
S272   W349    2.420   .     S
S272   W352    2.420   .     S
S273   W349    2.420   .     S
S273   W352    2.420   .     S
W274   S275    2.420   .     S
W274   S276    2.420   .     S
S275   W352    2.420   .     S
S275   W355    2.420   .     S
S276   W352    2.420   .     S
S276   W355    2.420   .     S
W277   S278    2.420   .     S
W277   S279    2.420   .     S
S278   W355    2.420   .     S
S278   W358    2.420   .     S
S279   W355    2.420   .     S
S279   W358    2.420   .     S
W280   S281    2.420   .     S
W280   S282    2.420   .     S
S281   W358    2.420   .     S
S281   W361    2.420   .     S
S282   W358    2.420   .     S
S282   W361    2.420   .     S
W283   S284    2.420   .     S
W283   S285    2.420   .     S
S284   W361    2.420   .     S
S284   W364    2.420   .     S
S285   W361    2.420   .     S
S285   W364    2.420   .     S
W286   S287    2.420   .     S
W286   S288    2.420   .     S
S287   W364    2.420   .     S
S287   W367    2.420   .     S
S288   W364    2.420   .     S
S288   W367    2.420   .     S
W289   S290    2.420   .     S
W289   S291    2.420   .     S
S290   W367    2.420   .     S
S290   W370    2.420   .     S
S291   W367    2.420   .     S
S291   W370    2.420   .     S
W292   S293    2.420   .     S
W292   S294    2.420   .     S
S293   W370    2.420   .     S
S293   W373    2.420   .     S
S294   W370    2.420   .     S
S294   W373    2.420   .     S
W295   S296    2.420   .     S
W295   S297    2.420   .     S
S296   W373    2.420   .     S
S296   W376    2.420   .     S
S297   W373    2.420   .     S
S297   W376    2.420   .     S
W298   S299    2.420   .     S
W298   S300    2.420   .     S
S299   W376    2.420   .     S
S299   W379    2.420   .     S
S300   W376    2.420   .     S
S300   W379    2.420   .     S
W301   S302    2.420   .     S
W301   S303    2.420   .     S
S302   W379    2.420   .     S
S302   W382    2.420   .     S
S303   W379    2.420   .     S
S303   W382    2.420   .     S
W304   S305    2.420   .     S
W304   S306    2.420   .     S
S305   W382    2.420   .     S
S305   W385    2.420   .     S
S306   W382    2.420   .     S
S306   W385    2.420   .     S
W307   S308    2.420   .     S
W307   S309    2.420   .     S
S308   W385    2.420   .     S
S308   W388    2.420   .     S
S309   W385    2.420   .     S
S309   W388    2.420   .     S
W310   S311    2.420   .     S
W310   S312    2.420   .     S
S311   W388    2.420   .     S
S312   W388    2.420   .     S
W313   S314    2.420   .     S
W313   S315    2.420   .     S
S314   W391    2.420   .     S
S314   W394    2.420   .     S
S315   W391    2.420   .     S
S315   W394    2.420   .     S
W316   S317    2.420   .     S
W316   S318    2.420   .     S
S317   W394    2.420   .     S
S317   W397    2.420   .     S
S318   W394    2.420   .     S
S318   W397    2.420   .     S
W319   S320    2.420   .     S
W319   S321    2.420   .     S
S320   W397    2.420   .     S
S320   W400    2.420   .     S
S321   W397    2.420   .     S
S321   W400    2.420   .     S
W322   S323    2.420   .     S
W322   S324    2.420   .     S
S323   W400    2.420   .     S
S323   W403    2.420   .     S
S324   W400    2.420   .     S
S324   W403    2.420   .     S
W325   S326    2.420   .     S
W325   S327    2.420   .     S
S326   W403    2.420   .     S
S326   W406    2.420   .     S
S327   W403    2.420   .     S
S327   W406    2.420   .     S
W328   S329    2.420   .     S
W328   S330    2.420   .     S
S329   W406    2.420   .     S
S329   W409    2.420   .     S
S330   W406    2.420   .     S
S330   W409    2.420   .     S
W331   S332    2.420   .     S
W331   S333    2.420   .     S
S332   W409    2.420   .     S
S332   W412    2.420   .     S
S333   W409    2.420   .     S
S333   W412    2.420   .     S
W334   S335    2.420   .     S
W334   S336    2.420   .     S
S335   W412    2.420   .     S
S335   W415    2.420   .     S
S336   W412    2.420   .     S
S336   W415    2.420   .     S
W337   S338    2.420   .     S
W337   S339    2.420   .     S
S338   W415    2.420   .     S
S338   W418    2.420   .     S
S339   W415    2.420   .     S
S339   W418    2.420   .     S
W340   S341    2.420   .     S
W340   S342    2.420   .     S
S341   W418    2.420   .     S
S341   W421    2.420   .     S
S342   W418    2.420   .     S
S342   W421    2.420   .     S
W343   S344    2.420   .     S
W343   S345    2.420   .     S
S344   W421    2.420   .     S
S344   W424    2.420   .     S
S345   W421    2.420   .     S
S345   W424    2.420   .     S
W346   S347    2.420   .     S
W346   S348    2.420   .     S
S347   W424    2.420   .     S
S347   W427    2.420   .     S
S348   W424    2.420   .     S
S348   W427    2.420   .     S
W349   S350    2.420   .     S
W349   S351    2.420   .     S
S350   W427    2.420   .     S
S350   W430    2.420   .     S
S351   W427    2.420   .     S
S351   W430    2.420   .     S
W352   S353    2.420   .     S
W352   S354    2.420   .     S
S353   W430    2.420   .     S
S353   W433    2.420   .     S
S354   W430    2.420   .     S
S354   W433    2.420   .     S
W355   S356    2.420   .     S
W355   S357    2.420   .     S
S356   W433    2.420   .     S
S356   W436    2.420   .     S
S357   W433    2.420   .     S
S357   W436    2.420   .     S
W358   S359    2.420   .     S
W358   S360    2.420   .     S
S359   W436    2.420   .     S
S359   W439    2.420   .     S
S360   W436    2.420   .     S
S360   W439    2.420   .     S
W361   S362    2.420   .     S
W361   S363    2.420   .     S
S362   W439    2.420   .     S
S362   W442    2.420   .     S
S363   W439    2.420   .     S
S363   W442    2.420   .     S
W364   S365    2.420   .     S
W364   S366    2.420   .     S
S365   W442    2.420   .     S
S365   W445    2.420   .     S
S366   W442    2.420   .     S
S366   W445    2.420   .     S
W367   S368    2.420   .     S
W367   S369    2.420   .     S
S368   W445    2.420   .     S
S368   W448    2.420   .     S
S369   W445    2.420   .     S
S369   W448    2.420   .     S
W370   S371    2.420   .     S
W370   S372    2.420   .     S
S371   W448    2.420   .     S
S371   W451    2.420   .     S
S372   W448    2.420   .     S
S372   W451    2.420   .     S
W373   S374    2.420   .     S
W373   S375    2.420   .     S
S374   W451    2.420   .     S
S374   W454    2.420   .     S
S375   W451    2.420   .     S
S375   W454    2.420   .     S
W376   S377    2.420   .     S
W376   S378    2.420   .     S
S377   W454    2.420   .     S
S377   W457    2.420   .     S
S378   W454    2.420   .     S
S378   W457    2.420   .     S
W379   S380    2.420   .     S
W379   S381    2.420   .     S
S380   W457    2.420   .     S
S380   W460    2.420   .     S
S381   W457    2.420   .     S
S381   W460    2.420   .     S
W382   S383    2.420   .     S
W382   S384    2.420   .     S
S383   W460    2.420   .     S
S383   W463    2.420   .     S
S384   W460    2.420   .     S
S384   W463    2.420   .     S
W385   S386    2.420   .     S
W385   S387    2.420   .     S
S386   W463    2.420   .     S
S386   W466    2.420   .     S
S387   W463    2.420   .     S
S387   W466    2.420   .     S
W388   S389    2.420   .     S
W388   S390    2.420   .     S
S389   W466    2.420   .     S
S390   W466    2.420   .     S
W391   S392    2.420   .     S
W391   S393    2.420   .     S
S392   W469    2.420   .     S
S392   W472    2.420   .     S
S393   W469    2.420   .     S
S393   W472    2.420   .     S
W394   S395    2.420   .     S
W394   S396    2.420   .     S
S395   W472    2.420   .     S
S395   W475    2.420   .     S
S396   W472    2.420   .     S
S396   W475    2.420   .     S
W397   S398    2.420   .     S
W397   S399    2.420   .     S
S398   W475    2.420   .     S
S398   W478    2.420   .     S
S399   W475    2.420   .     S
S399   W478    2.420   .     S
W400   S401    2.420   .     S
W400   S402    2.420   .     S
S401   W478    2.420   .     S
S401   W481    2.420   .     S
S402   W478    2.420   .     S
S402   W481    2.420   .     S
W403   S404    2.420   .     S
W403   S405    2.420   .     S
S404   W481    2.420   .     S
S404   W484    2.420   .     S
S405   W481    2.420   .     S
S405   W484    2.420   .     S
W406   S407    2.420   .     S
W406   S408    2.420   .     S
S407   W484    2.420   .     S
S407   W487    2.420   .     S
S408   W484    2.420   .     S
S408   W487    2.420   .     S
W409   S410    2.420   .     S
W409   S411    2.420   .     S
S410   W487    2.420   .     S
S410   W490    2.420   .     S
S411   W487    2.420   .     S
S411   W490    2.420   .     S
W412   S413    2.420   .     S
W412   S414    2.420   .     S
S413   W490    2.420   .     S
S413   W493    2.420   .     S
S414   W490    2.420   .     S
S414   W493    2.420   .     S
W415   S416    2.420   .     S
W415   S417    2.420   .     S
S416   W493    2.420   .     S
S416   W496    2.420   .     S
S417   W493    2.420   .     S
S417   W496    2.420   .     S
W418   S419    2.420   .     S
W418   S420    2.420   .     S
S419   W496    2.420   .     S
S419   W499    2.420   .     S
S420   W496    2.420   .     S
S420   W499    2.420   .     S
W421   S422    2.420   .     S
W421   S423    2.420   .     S
S422   W499    2.420   .     S
S422   W502    2.420   .     S
S423   W499    2.420   .     S
S423   W502    2.420   .     S
W424   S425    2.420   .     S
W424   S426    2.420   .     S
S425   W502    2.420   .     S
S425   W505    2.420   .     S
S426   W502    2.420   .     S
S426   W505    2.420   .     S
W427   S428    2.420   .     S
W427   S429    2.420   .     S
S428   W505    2.420   .     S
S428   W508    2.420   .     S
S429   W505    2.420   .     S
S429   W508    2.420   .     S
W430   S431    2.420   .     S
W430   S432    2.420   .     S
S431   W508    2.420   .     S
S431   W511    2.420   .     S
S432   W508    2.420   .     S
S432   W511    2.420   .     S
W433   S434    2.420   .     S
W433   S435    2.420   .     S
S434   W511    2.420   .     S
S434   W514    2.420   .     S
S435   W511    2.420   .     S
S435   W514    2.420   .     S
W436   S437    2.420   .     S
W436   S438    2.420   .     S
S437   W514    2.420   .     S
S437   W517    2.420   .     S
S438   W514    2.420   .     S
S438   W517    2.420   .     S
W439   S440    2.420   .     S
W439   S441    2.420   .     S
S440   W517    2.420   .     S
S440   W520    2.420   .     S
S441   W517    2.420   .     S
S441   W520    2.420   .     S
W442   S443    2.420   .     S
W442   S444    2.420   .     S
S443   W520    2.420   .     S
S443   W523    2.420   .     S
S444   W520    2.420   .     S
S444   W523    2.420   .     S
W445   S446    2.420   .     S
W445   S447    2.420   .     S
S446   W523    2.420   .     S
S446   W526    2.420   .     S
S447   W523    2.420   .     S
S447   W526    2.420   .     S
W448   S449    2.420   .     S
W448   S450    2.420   .     S
S449   W526    2.420   .     S
S449   W529    2.420   .     S
S450   W526    2.420   .     S
S450   W529    2.420   .     S
W451   S452    2.420   .     S
W451   S453    2.420   .     S
S452   W529    2.420   .     S
S452   W532    2.420   .     S
S453   W529    2.420   .     S
S453   W532    2.420   .     S
W454   S455    2.420   .     S
W454   S456    2.420   .     S
S455   W532    2.420   .     S
S455   W535    2.420   .     S
S456   W532    2.420   .     S
S456   W535    2.420   .     S
W457   S458    2.420   .     S
W457   S459    2.420   .     S
S458   W535    2.420   .     S
S458   W538    2.420   .     S
S459   W535    2.420   .     S
S459   W538    2.420   .     S
W460   S461    2.420   .     S
W460   S462    2.420   .     S
S461   W538    2.420   .     S
S461   W541    2.420   .     S
S462   W538    2.420   .     S
S462   W541    2.420   .     S
W463   S464    2.420   .     S
W463   S465    2.420   .     S
S464   W541    2.420   .     S
S464   W544    2.420   .     S
S465   W541    2.420   .     S
S465   W544    2.420   .     S
W466   S467    2.420   .     S
W466   S468    2.420   .     S
S467   W544    2.420   .     S
S468   W544    2.420   .     S
W469   S470    2.420   .     S
W469   S471    2.420   .     S
S470   W547    2.420   .     S
S470   W550    2.420   .     S
S471   W547    2.420   .     S
S471   W550    2.420   .     S
W472   S473    2.420   .     S
W472   S474    2.420   .     S
S473   W550    2.420   .     S
S473   W553    2.420   .     S
S474   W550    2.420   .     S
S474   W553    2.420   .     S
W475   S476    2.420   .     S
W475   S477    2.420   .     S
S476   W553    2.420   .     S
S476   W556    2.420   .     S
S477   W553    2.420   .     S
S477   W556    2.420   .     S
W478   S479    2.420   .     S
W478   S480    2.420   .     S
S479   W556    2.420   .     S
S479   W559    2.420   .     S
S480   W556    2.420   .     S
S480   W559    2.420   .     S
W481   S482    2.420   .     S
W481   S483    2.420   .     S
S482   W559    2.420   .     S
S482   W562    2.420   .     S
S483   W559    2.420   .     S
S483   W562    2.420   .     S
W484   S485    2.420   .     S
W484   S486    2.420   .     S
S485   W562    2.420   .     S
S485   W565    2.420   .     S
S486   W562    2.420   .     S
S486   W565    2.420   .     S
W487   S488    2.420   .     S
W487   S489    2.420   .     S
S488   W565    2.420   .     S
S488   W568    2.420   .     S
S489   W565    2.420   .     S
S489   W568    2.420   .     S
W490   S491    2.420   .     S
W490   S492    2.420   .     S
S491   W568    2.420   .     S
S491   W571    2.420   .     S
S492   W568    2.420   .     S
S492   W571    2.420   .     S
W493   S494    2.420   .     S
W493   S495    2.420   .     S
S494   W571    2.420   .     S
S494   W574    2.420   .     S
S495   W571    2.420   .     S
S495   W574    2.420   .     S
W496   S497    2.420   .     S
W496   S498    2.420   .     S
S497   W574    2.420   .     S
S497   W577    2.420   .     S
S498   W574    2.420   .     S
S498   W577    2.420   .     S
W499   S500    2.420   .     S
W499   S501    2.420   .     S
S500   W577    2.420   .     S
S500   W580    2.420   .     S
S501   W577    2.420   .     S
S501   W580    2.420   .     S
W502   S503    2.420   .     S
W502   S504    2.420   .     S
S503   W580    2.420   .     S
S503   W583    2.420   .     S
S504   W580    2.420   .     S
S504   W583    2.420   .     S
W505   S506    2.420   .     S
W505   S507    2.420   .     S
S506   W583    2.420   .     S
S506   W586    2.420   .     S
S507   W583    2.420   .     S
S507   W586    2.420   .     S
W508   S509    2.420   .     S
W508   S510    2.420   .     S
S509   W586    2.420   .     S
S509   W589    2.420   .     S
S510   W586    2.420   .     S
S510   W589    2.420   .     S
W511   S512    2.420   .     S
W511   S513    2.420   .     S
S512   W589    2.420   .     S
S512   W592    2.420   .     S
S513   W589    2.420   .     S
S513   W592    2.420   .     S
W514   S515    2.420   .     S
W514   S516    2.420   .     S
S515   W592    2.420   .     S
S515   W595    2.420   .     S
S516   W592    2.420   .     S
S516   W595    2.420   .     S
W517   S518    2.420   .     S
W517   S519    2.420   .     S
S518   W595    2.420   .     S
S518   W598    2.420   .     S
S519   W595    2.420   .     S
S519   W598    2.420   .     S
W520   S521    2.420   .     S
W520   S522    2.420   .     S
S521   W598    2.420   .     S
S521   W601    2.420   .     S
S522   W598    2.420   .     S
S522   W601    2.420   .     S
W523   S524    2.420   .     S
W523   S525    2.420   .     S
S524   W601    2.420   .     S
S524   W604    2.420   .     S
S525   W601    2.420   .     S
S525   W604    2.420   .     S
W526   S527    2.420   .     S
W526   S528    2.420   .     S
S527   W604    2.420   .     S
S527   W607    2.420   .     S
S528   W604    2.420   .     S
S528   W607    2.420   .     S
W529   S530    2.420   .     S
W529   S531    2.420   .     S
S530   W607    2.420   .     S
S530   W610    2.420   .     S
S531   W607    2.420   .     S
S531   W610    2.420   .     S
W532   S533    2.420   .     S
W532   S534    2.420   .     S
S533   W610    2.420   .     S
S533   W613    2.420   .     S
S534   W610    2.420   .     S
S534   W613    2.420   .     S
W535   S536    2.420   .     S
W535   S537    2.420   .     S
S536   W613    2.420   .     S
S536   W616    2.420   .     S
S537   W613    2.420   .     S
S537   W616    2.420   .     S
W538   S539    2.420   .     S
W538   S540    2.420   .     S
S539   W616    2.420   .     S
S539   W619    2.420   .     S
S540   W616    2.420   .     S
S540   W619    2.420   .     S
W541   S542    2.420   .     S
W541   S543    2.420   .     S
S542   W619    2.420   .     S
S542   W622    2.420   .     S
S543   W619    2.420   .     S
S543   W622    2.420   .     S
W544   S545    2.420   .     S
W544   S546    2.420   .     S
S545   W622    2.420   .     S
S546   W622    2.420   .     S
W547   S548    2.420   .     S
W547   S549    2.420   .     S
S548   W625    2.420   .     S
S548   W628    2.420   .     S
S549   W625    2.420   .     S
S549   W628    2.420   .     S
W550   S551    2.420   .     S
W550   S552    2.420   .     S
S551   W628    2.420   .     S
S551   W631    2.420   .     S
S552   W628    2.420   .     S
S552   W631    2.420   .     S
W553   S554    2.420   .     S
W553   S555    2.420   .     S
S554   W631    2.420   .     S
S554   W634    2.420   .     S
S555   W631    2.420   .     S
S555   W634    2.420   .     S
W556   S557    2.420   .     S
W556   S558    2.420   .     S
S557   W634    2.420   .     S
S557   W637    2.420   .     S
S558   W634    2.420   .     S
S558   W637    2.420   .     S
W559   S560    2.420   .     S
W559   S561    2.420   .     S
S560   W637    2.420   .     S
S560   W640    2.420   .     S
S561   W637    2.420   .     S
S561   W640    2.420   .     S
W562   S563    2.420   .     S
W562   S564    2.420   .     S
S563   W640    2.420   .     S
S563   W643    2.420   .     S
S564   W640    2.420   .     S
S564   W643    2.420   .     S
W565   S566    2.420   .     S
W565   S567    2.420   .     S
S566   W643    2.420   .     S
S566   W646    2.420   .     S
S567   W643    2.420   .     S
S567   W646    2.420   .     S
W568   S569    2.420   .     S
W568   S570    2.420   .     S
S569   W646    2.420   .     S
S569   W649    2.420   .     S
S570   W646    2.420   .     S
S570   W649    2.420   .     S
W571   S572    2.420   .     S
W571   S573    2.420   .     S
S572   W649    2.420   .     S
S572   W652    2.420   .     S
S573   W649    2.420   .     S
S573   W652    2.420   .     S
W574   S575    2.420   .     S
W574   S576    2.420   .     S
S575   W652    2.420   .     S
S575   W655    2.420   .     S
S576   W652    2.420   .     S
S576   W655    2.420   .     S
W577   S578    2.420   .     S
W577   S579    2.420   .     S
S578   W655    2.420   .     S
S578   W658    2.420   .     S
S579   W655    2.420   .     S
S579   W658    2.420   .     S
W580   S581    2.420   .     S
W580   S582    2.420   .     S
S581   W658    2.420   .     S
S581   W661    2.420   .     S
S582   W658    2.420   .     S
S582   W661    2.420   .     S
W583   S584    2.420   .     S
W583   S585    2.420   .     S
S584   W661    2.420   .     S
S584   W664    2.420   .     S
S585   W661    2.420   .     S
S585   W664    2.420   .     S
W586   S587    2.420   .     S
W586   S588    2.420   .     S
S587   W664    2.420   .     S
S587   W667    2.420   .     S
S588   W664    2.420   .     S
S588   W667    2.420   .     S
W589   S590    2.420   .     S
W589   S591    2.420   .     S
S590   W667    2.420   .     S
S590   W670    2.420   .     S
S591   W667    2.420   .     S
S591   W670    2.420   .     S
W592   S593    2.420   .     S
W592   S594    2.420   .     S
S593   W670    2.420   .     S
S593   W673    2.420   .     S
S594   W670    2.420   .     S
S594   W673    2.420   .     S
W595   S596    2.420   .     S
W595   S597    2.420   .     S
S596   W673    2.420   .     S
S596   W676    2.420   .     S
S597   W673    2.420   .     S
S597   W676    2.420   .     S
W598   S599    2.420   .     S
W598   S600    2.420   .     S
S599   W676    2.420   .     S
S599   W679    2.420   .     S
S600   W676    2.420   .     S
S600   W679    2.420   .     S
W601   S602    2.420   .     S
W601   S603    2.420   .     S
S602   W679    2.420   .     S
S602   W682    2.420   .     S
S603   W679    2.420   .     S
S603   W682    2.420   .     S
W604   S605    2.420   .     S
W604   S606    2.420   .     S
S605   W682    2.420   .     S
S605   W685    2.420   .     S
S606   W682    2.420   .     S
S606   W685    2.420   .     S
W607   S608    2.420   .     S
W607   S609    2.420   .     S
S608   W685    2.420   .     S
S608   W688    2.420   .     S
S609   W685    2.420   .     S
S609   W688    2.420   .     S
W610   S611    2.420   .     S
W610   S612    2.420   .     S
S611   W688    2.420   .     S
S611   W691    2.420   .     S
S612   W688    2.420   .     S
S612   W691    2.420   .     S
W613   S614    2.420   .     S
W613   S615    2.420   .     S
S614   W691    2.420   .     S
S614   W694    2.420   .     S
S615   W691    2.420   .     S
S615   W694    2.420   .     S
W616   S617    2.420   .     S
W616   S618    2.420   .     S
S617   W694    2.420   .     S
S617   W697    2.420   .     S
S618   W694    2.420   .     S
S618   W697    2.420   .     S
W619   S620    2.420   .     S
W619   S621    2.420   .     S
S620   W697    2.420   .     S
S620   W700    2.420   .     S
S621   W697    2.420   .     S
S621   W700    2.420   .     S
W622   S623    2.420   .     S
W622   S624    2.420   .     S
S623   W700    2.420   .     S
S624   W700    2.420   .     S
W625   S626    2.420   .     S
W625   S627    2.420   .     S
S626   W703    2.420   .     S
S626   W706    2.420   .     S
S627   W703    2.420   .     S
S627   W706    2.420   .     S
W628   S629    2.420   .     S
W628   S630    2.420   .     S
S629   W706    2.420   .     S
S629   W709    2.420   .     S
S630   W706    2.420   .     S
S630   W709    2.420   .     S
W631   S632    2.420   .     S
W631   S633    2.420   .     S
S632   W709    2.420   .     S
S632   W712    2.420   .     S
S633   W709    2.420   .     S
S633   W712    2.420   .     S
W634   S635    2.420   .     S
W634   S636    2.420   .     S
S635   W712    2.420   .     S
S635   W715    2.420   .     S
S636   W712    2.420   .     S
S636   W715    2.420   .     S
W637   S638    2.420   .     S
W637   S639    2.420   .     S
S638   W715    2.420   .     S
S638   W718    2.420   .     S
S639   W715    2.420   .     S
S639   W718    2.420   .     S
W640   S641    2.420   .     S
W640   S642    2.420   .     S
S641   W718    2.420   .     S
S641   W721    2.420   .     S
S642   W718    2.420   .     S
S642   W721    2.420   .     S
W643   S644    2.420   .     S
W643   S645    2.420   .     S
S644   W721    2.420   .     S
S644   W724    2.420   .     S
S645   W721    2.420   .     S
S645   W724    2.420   .     S
W646   S647    2.420   .     S
W646   S648    2.420   .     S
S647   W724    2.420   .     S
S647   W727    2.420   .     S
S648   W724    2.420   .     S
S648   W727    2.420   .     S
W649   S650    2.420   .     S
W649   S651    2.420   .     S
S650   W727    2.420   .     S
S650   W730    2.420   .     S
S651   W727    2.420   .     S
S651   W730    2.420   .     S
W652   S653    2.420   .     S
W652   S654    2.420   .     S
S653   W730    2.420   .     S
S653   W733    2.420   .     S
S654   W730    2.420   .     S
S654   W733    2.420   .     S
W655   S656    2.420   .     S
W655   S657    2.420   .     S
S656   W733    2.420   .     S
S656   W736    2.420   .     S
S657   W733    2.420   .     S
S657   W736    2.420   .     S
W658   S659    2.420   .     S
W658   S660    2.420   .     S
S659   W736    2.420   .     S
S659   W739    2.420   .     S
S660   W736    2.420   .     S
S660   W739    2.420   .     S
W661   S662    2.420   .     S
W661   S663    2.420   .     S
S662   W739    2.420   .     S
S662   W742    2.420   .     S
S663   W739    2.420   .     S
S663   W742    2.420   .     S
W664   S665    2.420   .     S
W664   S666    2.420   .     S
S665   W742    2.420   .     S
S665   W745    2.420   .     S
S666   W742    2.420   .     S
S666   W745    2.420   .     S
W667   S668    2.420   .     S
W667   S669    2.420   .     S
S668   W745    2.420   .     S
S668   W748    2.420   .     S
S669   W745    2.420   .     S
S669   W748    2.420   .     S
W670   S671    2.420   .     S
W670   S672    2.420   .     S
S671   W748    2.420   .     S
S671   W751    2.420   .     S
S672   W748    2.420   .     S
S672   W751    2.420   .     S
W673   S674    2.420   .     S
W673   S675    2.420   .     S
S674   W751    2.420   .     S
S674   W754    2.420   .     S
S675   W751    2.420   .     S
S675   W754    2.420   .     S
W676   S677    2.420   .     S
W676   S678    2.420   .     S
S677   W754    2.420   .     S
S677   W757    2.420   .     S
S678   W754    2.420   .     S
S678   W757    2.420   .     S
W679   S680    2.420   .     S
W679   S681    2.420   .     S
S680   W757    2.420   .     S
S680   W760    2.420   .     S
S681   W757    2.420   .     S
S681   W760    2.420   .     S
W682   S683    2.420   .     S
W682   S684    2.420   .     S
S683   W760    2.420   .     S
S683   W763    2.420   .     S
S684   W760    2.420   .     S
S684   W763    2.420   .     S
W685   S686    2.420   .     S
W685   S687    2.420   .     S
S686   W763    2.420   .     S
S686   W766    2.420   .     S
S687   W763    2.420   .     S
S687   W766    2.420   .     S
W688   S689    2.420   .     S
W688   S690    2.420   .     S
S689   W766    2.420   .     S
S689   W769    2.420   .     S
S690   W766    2.420   .     S
S690   W769    2.420   .     S
W691   S692    2.420   .     S
W691   S693    2.420   .     S
S692   W769    2.420   .     S
S692   W772    2.420   .     S
S693   W769    2.420   .     S
S693   W772    2.420   .     S
W694   S695    2.420   .     S
W694   S696    2.420   .     S
S695   W772    2.420   .     S
S695   W775    2.420   .     S
S696   W772    2.420   .     S
S696   W775    2.420   .     S
W697   S698    2.420   .     S
W697   S699    2.420   .     S
S698   W775    2.420   .     S
S698   W778    2.420   .     S
S699   W775    2.420   .     S
S699   W778    2.420   .     S
W700   S701    2.420   .     S
W700   S702    2.420   .     S
S701   W778    2.420   .     S
S702   W778    2.420   .     S
W703   S704    2.420   .     S
W703   S705    2.420   .     S
S704   W781    2.420   .     S
S704   W784    2.420   .     S
S705   W781    2.420   .     S
S705   W784    2.420   .     S
W706   S707    2.420   .     S
W706   S708    2.420   .     S
S707   W784    2.420   .     S
S707   W787    2.420   .     S
S708   W784    2.420   .     S
S708   W787    2.420   .     S
W709   S710    2.420   .     S
W709   S711    2.420   .     S
S710   W787    2.420   .     S
S710   W790    2.420   .     S
S711   W787    2.420   .     S
S711   W790    2.420   .     S
W712   S713    2.420   .     S
W712   S714    2.420   .     S
S713   W790    2.420   .     S
S713   W793    2.420   .     S
S714   W790    2.420   .     S
S714   W793    2.420   .     S
W715   S716    2.420   .     S
W715   S717    2.420   .     S
S716   W793    2.420   .     S
S716   W796    2.420   .     S
S717   W793    2.420   .     S
S717   W796    2.420   .     S
W718   S719    2.420   .     S
W718   S720    2.420   .     S
S719   W796    2.420   .     S
S719   W799    2.420   .     S
S720   W796    2.420   .     S
S720   W799    2.420   .     S
W721   S722    2.420   .     S
W721   S723    2.420   .     S
S722   W799    2.420   .     S
S722   W802    2.420   .     S
S723   W799    2.420   .     S
S723   W802    2.420   .     S
W724   S725    2.420   .     S
W724   S726    2.420   .     S
S725   W802    2.420   .     S
S725   W805    2.420   .     S
S726   W802    2.420   .     S
S726   W805    2.420   .     S
W727   S728    2.420   .     S
W727   S729    2.420   .     S
S728   W805    2.420   .     S
S728   W808    2.420   .     S
S729   W805    2.420   .     S
S729   W808    2.420   .     S
W730   S731    2.420   .     S
W730   S732    2.420   .     S
S731   W808    2.420   .     S
S731   W811    2.420   .     S
S732   W808    2.420   .     S
S732   W811    2.420   .     S
W733   S734    2.420   .     S
W733   S735    2.420   .     S
S734   W811    2.420   .     S
S734   W814    2.420   .     S
S735   W811    2.420   .     S
S735   W814    2.420   .     S
W736   S737    2.420   .     S
W736   S738    2.420   .     S
S737   W814    2.420   .     S
S737   W817    2.420   .     S
S738   W814    2.420   .     S
S738   W817    2.420   .     S
W739   S740    2.420   .     S
W739   S741    2.420   .     S
S740   W817    2.420   .     S
S740   W820    2.420   .     S
S741   W817    2.420   .     S
S741   W820    2.420   .     S
W742   S743    2.420   .     S
W742   S744    2.420   .     S
S743   W820    2.420   .     S
S743   W823    2.420   .     S
S744   W820    2.420   .     S
S744   W823    2.420   .     S
W745   S746    2.420   .     S
W745   S747    2.420   .     S
S746   W823    2.420   .     S
S746   W826    2.420   .     S
S747   W823    2.420   .     S
S747   W826    2.420   .     S
W748   S749    2.420   .     S
W748   S750    2.420   .     S
S749   W826    2.420   .     S
S749   W829    2.420   .     S
S750   W826    2.420   .     S
S750   W829    2.420   .     S
W751   S752    2.420   .     S
W751   S753    2.420   .     S
S752   W829    2.420   .     S
S752   W832    2.420   .     S
S753   W829    2.420   .     S
S753   W832    2.420   .     S
W754   S755    2.420   .     S
W754   S756    2.420   .     S
S755   W832    2.420   .     S
S755   W835    2.420   .     S
S756   W832    2.420   .     S
S756   W835    2.420   .     S
W757   S758    2.420   .     S
W757   S759    2.420   .     S
S758   W835    2.420   .     S
S758   W838    2.420   .     S
S759   W835    2.420   .     S
S759   W838    2.420   .     S
W760   S761    2.420   .     S
W760   S762    2.420   .     S
S761   W838    2.420   .     S
S761   W841    2.420   .     S
S762   W838    2.420   .     S
S762   W841    2.420   .     S
W763   S764    2.420   .     S
W763   S765    2.420   .     S
S764   W841    2.420   .     S
S764   W844    2.420   .     S
S765   W841    2.420   .     S
S765   W844    2.420   .     S
W766   S767    2.420   .     S
W766   S768    2.420   .     S
S767   W844    2.420   .     S
S767   W847    2.420   .     S
S768   W844    2.420   .     S
S768   W847    2.420   .     S
W769   S770    2.420   .     S
W769   S771    2.420   .     S
S770   W847    2.420   .     S
S770   W850    2.420   .     S
S771   W847    2.420   .     S
S771   W850    2.420   .     S
W772   S773    2.420   .     S
W772   S774    2.420   .     S
S773   W850    2.420   .     S
S773   W853    2.420   .     S
S774   W850    2.420   .     S
S774   W853    2.420   .     S
W775   S776    2.420   .     S
W775   S777    2.420   .     S
S776   W853    2.420   .     S
S776   W856    2.420   .     S
S777   W853    2.420   .     S
S777   W856    2.420   .     S
W778   S779    2.420   .     S
W778   S780    2.420   .     S
S779   W856    2.420   .     S
S780   W856    2.420   .     S
W781   S782    2.420   .     S
W781   S783    2.420   .     S
S782   W859    2.420   .     S
S782   W862    2.420   .     S
S783   W859    2.420   .     S
S783   W862    2.420   .     S
W784   S785    2.420   .     S
W784   S786    2.420   .     S
S785   W862    2.420   .     S
S785   W865    2.420   .     S
S786   W862    2.420   .     S
S786   W865    2.420   .     S
W787   S788    2.420   .     S
W787   S789    2.420   .     S
S788   W865    2.420   .     S
S788   W868    2.420   .     S
S789   W865    2.420   .     S
S789   W868    2.420   .     S
W790   S791    2.420   .     S
W790   S792    2.420   .     S
S791   W868    2.420   .     S
S791   W871    2.420   .     S
S792   W868    2.420   .     S
S792   W871    2.420   .     S
W793   S794    2.420   .     S
W793   S795    2.420   .     S
S794   W871    2.420   .     S
S794   W874    2.420   .     S
S795   W871    2.420   .     S
S795   W874    2.420   .     S
W796   S797    2.420   .     S
W796   S798    2.420   .     S
S797   W874    2.420   .     S
S797   W877    2.420   .     S
S798   W874    2.420   .     S
S798   W877    2.420   .     S
W799   S800    2.420   .     S
W799   S801    2.420   .     S
S800   W877    2.420   .     S
S800   W880    2.420   .     S
S801   W877    2.420   .     S
S801   W880    2.420   .     S
W802   S803    2.420   .     S
W802   S804    2.420   .     S
S803   W880    2.420   .     S
S803   W883    2.420   .     S
S804   W880    2.420   .     S
S804   W883    2.420   .     S
W805   S806    2.420   .     S
W805   S807    2.420   .     S
S806   W883    2.420   .     S
S806   W886    2.420   .     S
S807   W883    2.420   .     S
S807   W886    2.420   .     S
W808   S809    2.420   .     S
W808   S810    2.420   .     S
S809   W886    2.420   .     S
S809   W889    2.420   .     S
S810   W886    2.420   .     S
S810   W889    2.420   .     S
W811   S812    2.420   .     S
W811   S813    2.420   .     S
S812   W889    2.420   .     S
S812   W892    2.420   .     S
S813   W889    2.420   .     S
S813   W892    2.420   .     S
W814   S815    2.420   .     S
W814   S816    2.420   .     S
S815   W892    2.420   .     S
S815   W895    2.420   .     S
S816   W892    2.420   .     S
S816   W895    2.420   .     S
W817   S818    2.420   .     S
W817   S819    2.420   .     S
S818   W895    2.420   .     S
S818   W898    2.420   .     S
S819   W895    2.420   .     S
S819   W898    2.420   .     S
W820   S821    2.420   .     S
W820   S822    2.420   .     S
S821   W898    2.420   .     S
S821   W901    2.420   .     S
S822   W898    2.420   .     S
S822   W901    2.420   .     S
W823   S824    2.420   .     S
W823   S825    2.420   .     S
S824   W901    2.420   .     S
S824   W904    2.420   .     S
S825   W901    2.420   .     S
S825   W904    2.420   .     S
W826   S827    2.420   .     S
W826   S828    2.420   .     S
S827   W904    2.420   .     S
S827   W907    2.420   .     S
S828   W904    2.420   .     S
S828   W907    2.420   .     S
W829   S830    2.420   .     S
W829   S831    2.420   .     S
S830   W907    2.420   .     S
S830   W910    2.420   .     S
S831   W907    2.420   .     S
S831   W910    2.420   .     S
W832   S833    2.420   .     S
W832   S834    2.420   .     S
S833   W910    2.420   .     S
S833   W913    2.420   .     S
S834   W910    2.420   .     S
S834   W913    2.420   .     S
W835   S836    2.420   .     S
W835   S837    2.420   .     S
S836   W913    2.420   .     S
S836   W916    2.420   .     S
S837   W913    2.420   .     S
S837   W916    2.420   .     S
W838   S839    2.420   .     S
W838   S840    2.420   .     S
S839   W916    2.420   .     S
S839   W919    2.420   .     S
S840   W916    2.420   .     S
S840   W919    2.420   .     S
W841   S842    2.420   .     S
W841   S843    2.420   .     S
S842   W919    2.420   .     S
S842   W922    2.420   .     S
S843   W919    2.420   .     S
S843   W922    2.420   .     S
W844   S845    2.420   .     S
W844   S846    2.420   .     S
S845   W922    2.420   .     S
S845   W925    2.420   .     S
S846   W922    2.420   .     S
S846   W925    2.420   .     S
W847   S848    2.420   .     S
W847   S849    2.420   .     S
S848   W925    2.420   .     S
S848   W928    2.420   .     S
S849   W925    2.420   .     S
S849   W928    2.420   .     S
W850   S851    2.420   .     S
W850   S852    2.420   .     S
S851   W928    2.420   .     S
S851   W931    2.420   .     S
S852   W928    2.420   .     S
S852   W931    2.420   .     S
W853   S854    2.420   .     S
W853   S855    2.420   .     S
S854   W931    2.420   .     S
S854   W934    2.420   .     S
S855   W931    2.420   .     S
S855   W934    2.420   .     S
W856   S857    2.420   .     S
W856   S858    2.420   .     S
S857   W934    2.420   .     S
S858   W934    2.420   .     S
W859   S860    2.420   .     S
W859   S861    2.420   .     S
S860   W937    2.420   .     S
S860   W940    2.420   .     S
S861   W937    2.420   .     S
S861   W940    2.420   .     S
W862   S863    2.420   .     S
W862   S864    2.420   .     S
S863   W940    2.420   .     S
S863   W943    2.420   .     S
S864   W940    2.420   .     S
S864   W943    2.420   .     S
W865   S866    2.420   .     S
W865   S867    2.420   .     S
S866   W943    2.420   .     S
S866   W946    2.420   .     S
S867   W943    2.420   .     S
S867   W946    2.420   .     S
W868   S869    2.420   .     S
W868   S870    2.420   .     S
S869   W946    2.420   .     S
S869   W949    2.420   .     S
S870   W946    2.420   .     S
S870   W949    2.420   .     S
W871   S872    2.420   .     S
W871   S873    2.420   .     S
S872   W949    2.420   .     S
S872   W952    2.420   .     S
S873   W949    2.420   .     S
S873   W952    2.420   .     S
W874   S875    2.420   .     S
W874   S876    2.420   .     S
S875   W952    2.420   .     S
S875   W955    2.420   .     S
S876   W952    2.420   .     S
S876   W955    2.420   .     S
W877   S878    2.420   .     S
W877   S879    2.420   .     S
S878   W955    2.420   .     S
S878   W958    2.420   .     S
S879   W955    2.420   .     S
S879   W958    2.420   .     S
W880   S881    2.420   .     S
W880   S882    2.420   .     S
S881   W958    2.420   .     S
S881   W961    2.420   .     S
S882   W958    2.420   .     S
S882   W961    2.420   .     S
W883   S884    2.420   .     S
W883   S885    2.420   .     S
S884   W961    2.420   .     S
S884   W964    2.420   .     S
S885   W961    2.420   .     S
S885   W964    2.420   .     S
W886   S887    2.420   .     S
W886   S888    2.420   .     S
S887   W964    2.420   .     S
S887   W967    2.420   .     S
S888   W964    2.420   .     S
S888   W967    2.420   .     S
W889   S890    2.420   .     S
W889   S891    2.420   .     S
S890   W967    2.420   .     S
S890   W970    2.420   .     S
S891   W967    2.420   .     S
S891   W970    2.420   .     S
W892   S893    2.420   .     S
W892   S894    2.420   .     S
S893   W970    2.420   .     S
S893   W973    2.420   .     S
S894   W970    2.420   .     S
S894   W973    2.420   .     S
W895   S896    2.420   .     S
W895   S897    2.420   .     S
S896   W973    2.420   .     S
S896   W976    2.420   .     S
S897   W973    2.420   .     S
S897   W976    2.420   .     S
W898   S899    2.420   .     S
W898   S900    2.420   .     S
S899   W976    2.420   .     S
S899   W979    2.420   .     S
S900   W976    2.420   .     S
S900   W979    2.420   .     S
W901   S902    2.420   .     S
W901   S903    2.420   .     S
S902   W979    2.420   .     S
S902   W982    2.420   .     S
S903   W979    2.420   .     S
S903   W982    2.420   .     S
W904   S905    2.420   .     S
W904   S906    2.420   .     S
S905   W982    2.420   .     S
S905   W985    2.420   .     S
S906   W982    2.420   .     S
S906   W985    2.420   .     S
W907   S908    2.420   .     S
W907   S909    2.420   .     S
S908   W985    2.420   .     S
S908   W988    2.420   .     S
S909   W985    2.420   .     S
S909   W988    2.420   .     S
W910   S911    2.420   .     S
W910   S912    2.420   .     S
S911   W988    2.420   .     S
S911   W991    2.420   .     S
S912   W988    2.420   .     S
S912   W991    2.420   .     S
W913   S914    2.420   .     S
W913   S915    2.420   .     S
S914   W991    2.420   .     S
S914   W994    2.420   .     S
S915   W991    2.420   .     S
S915   W994    2.420   .     S
W916   S917    2.420   .     S
W916   S918    2.420   .     S
S917   W994    2.420   .     S
S917   W997    2.420   .     S
S918   W994    2.420   .     S
S918   W997    2.420   .     S
W919   S920    2.420   .     S
W919   S921    2.420   .     S
S920   W997    2.420   .     S
S920   W1000   2.420   .     S
S921   W997    2.420   .     S
S921   W1000   2.420   .     S
W922   S923    2.420   .     S
W922   S924    2.420   .     S
S923   W1000   2.420   .     S
S923   W1003   2.420   .     S
S924   W1000   2.420   .     S
S924   W1003   2.420   .     S
W925   S926    2.420   .     S
W925   S927    2.420   .     S
S926   W1003   2.420   .     S
S926   W1006   2.420   .     S
S927   W1003   2.420   .     S
S927   W1006   2.420   .     S
W928   S929    2.420   .     S
W928   S930    2.420   .     S
S929   W1006   2.420   .     S
S929   W1009   2.420   .     S
S930   W1006   2.420   .     S
S930   W1009   2.420   .     S
W931   S932    2.420   .     S
W931   S933    2.420   .     S
S932   W1009   2.420   .     S
S932   W1012   2.420   .     S
S933   W1009   2.420   .     S
S933   W1012   2.420   .     S
W934   S935    2.420   .     S
W934   S936    2.420   .     S
S935   W1012   2.420   .     S
S936   W1012   2.420   .     S
W937   S938    2.420   .     S
W937   S939    2.420   .     S
S938   W1015   2.420   .     S
S938   W1018   2.420   .     S
S939   W1015   2.420   .     S
S939   W1018   2.420   .     S
W940   S941    2.420   .     S
W940   S942    2.420   .     S
S941   W1018   2.420   .     S
S941   W1021   2.420   .     S
S942   W1018   2.420   .     S
S942   W1021   2.420   .     S
W943   S944    2.420   .     S
W943   S945    2.420   .     S
S944   W1021   2.420   .     S
S944   W1024   2.420   .     S
S945   W1021   2.420   .     S
S945   W1024   2.420   .     S
W946   S947    2.420   .     S
W946   S948    2.420   .     S
S947   W1024   2.420   .     S
S947   W1027   2.420   .     S
S948   W1024   2.420   .     S
S948   W1027   2.420   .     S
W949   S950    2.420   .     S
W949   S951    2.420   .     S
S950   W1027   2.420   .     S
S950   W1030   2.420   .     S
S951   W1027   2.420   .     S
S951   W1030   2.420   .     S
W952   S953    2.420   .     S
W952   S954    2.420   .     S
S953   W1030   2.420   .     S
S953   W1033   2.420   .     S
S954   W1030   2.420   .     S
S954   W1033   2.420   .     S
W955   S956    2.420   .     S
W955   S957    2.420   .     S
S956   W1033   2.420   .     S
S956   W1036   2.420   .     S
S957   W1033   2.420   .     S
S957   W1036   2.420   .     S
W958   S959    2.420   .     S
W958   S960    2.420   .     S
S959   W1036   2.420   .     S
S959   W1039   2.420   .     S
S960   W1036   2.420   .     S
S960   W1039   2.420   .     S
W961   S962    2.420   .     S
W961   S963    2.420   .     S
S962   W1039   2.420   .     S
S962   W1042   2.420   .     S
S963   W1039   2.420   .     S
S963   W1042   2.420   .     S
W964   S965    2.420   .     S
W964   S966    2.420   .     S
S965   W1042   2.420   .     S
S965   W1045   2.420   .     S
S966   W1042   2.420   .     S
S966   W1045   2.420   .     S
W967   S968    2.420   .     S
W967   S969    2.420   .     S
S968   W1045   2.420   .     S
S968   W1048   2.420   .     S
S969   W1045   2.420   .     S
S969   W1048   2.420   .     S
W970   S971    2.420   .     S
W970   S972    2.420   .     S
S971   W1048   2.420   .     S
S971   W1051   2.420   .     S
S972   W1048   2.420   .     S
S972   W1051   2.420   .     S
W973   S974    2.420   .     S
W973   S975    2.420   .     S
S974   W1051   2.420   .     S
S974   W1054   2.420   .     S
S975   W1051   2.420   .     S
S975   W1054   2.420   .     S
W976   S977    2.420   .     S
W976   S978    2.420   .     S
S977   W1054   2.420   .     S
S977   W1057   2.420   .     S
S978   W1054   2.420   .     S
S978   W1057   2.420   .     S
W979   S980    2.420   .     S
W979   S981    2.420   .     S
S980   W1057   2.420   .     S
S980   W1060   2.420   .     S
S981   W1057   2.420   .     S
S981   W1060   2.420   .     S
W982   S983    2.420   .     S
W982   S984    2.420   .     S
S983   W1060   2.420   .     S
S983   W1063   2.420   .     S
S984   W1060   2.420   .     S
S984   W1063   2.420   .     S
W985   S986    2.420   .     S
W985   S987    2.420   .     S
S986   W1063   2.420   .     S
S986   W1066   2.420   .     S
S987   W1063   2.420   .     S
S987   W1066   2.420   .     S
W988   S989    2.420   .     S
W988   S990    2.420   .     S
S989   W1066   2.420   .     S
S989   W1069   2.420   .     S
S990   W1066   2.420   .     S
S990   W1069   2.420   .     S
W991   S992    2.420   .     S
W991   S993    2.420   .     S
S992   W1069   2.420   .     S
S992   W1072   2.420   .     S
S993   W1069   2.420   .     S
S993   W1072   2.420   .     S
W994   S995    2.420   .     S
W994   S996    2.420   .     S
S995   W1072   2.420   .     S
S995   W1075   2.420   .     S
S996   W1072   2.420   .     S
S996   W1075   2.420   .     S
W997   S998    2.420   .     S
W997   S999    2.420   .     S
S998   W1075   2.420   .     S
S998   W1078   2.420   .     S
S999   W1075   2.420   .     S
S999   W1078   2.420   .     S
W1000  S1001   2.420   .     S
W1000  S1002   2.420   .     S
S1001  W1078   2.420   .     S
S1001  W1081   2.420   .     S
S1002  W1078   2.420   .     S
S1002  W1081   2.420   .     S
W1003  S1004   2.420   .     S
W1003  S1005   2.420   .     S
S1004  W1081   2.420   .     S
S1004  W1084   2.420   .     S
S1005  W1081   2.420   .     S
S1005  W1084   2.420   .     S
W1006  S1007   2.420   .     S
W1006  S1008   2.420   .     S
S1007  W1084   2.420   .     S
S1007  W1087   2.420   .     S
S1008  W1084   2.420   .     S
S1008  W1087   2.420   .     S
W1009  S1010   2.420   .     S
W1009  S1011   2.420   .     S
S1010  W1087   2.420   .     S
S1010  W1090   2.420   .     S
S1011  W1087   2.420   .     S
S1011  W1090   2.420   .     S
W1012  S1013   2.420   .     S
W1012  S1014   2.420   .     S
S1013  W1090   2.420   .     S
S1014  W1090   2.420   .     S
W1015  S1016   2.420   .     S
W1015  S1017   2.420   .     S
S1016  W1093   2.420   .     S
S1016  W1096   2.420   .     S
S1017  W1093   2.420   .     S
S1017  W1096   2.420   .     S
W1018  S1019   2.420   .     S
W1018  S1020   2.420   .     S
S1019  W1096   2.420   .     S
S1019  W1099   2.420   .     S
S1020  W1096   2.420   .     S
S1020  W1099   2.420   .     S
W1021  S1022   2.420   .     S
W1021  S1023   2.420   .     S
S1022  W1099   2.420   .     S
S1022  W1102   2.420   .     S
S1023  W1099   2.420   .     S
S1023  W1102   2.420   .     S
W1024  S1025   2.420   .     S
W1024  S1026   2.420   .     S
S1025  W1102   2.420   .     S
S1025  W1105   2.420   .     S
S1026  W1102   2.420   .     S
S1026  W1105   2.420   .     S
W1027  S1028   2.420   .     S
W1027  S1029   2.420   .     S
S1028  W1105   2.420   .     S
S1028  W1108   2.420   .     S
S1029  W1105   2.420   .     S
S1029  W1108   2.420   .     S
W1030  S1031   2.420   .     S
W1030  S1032   2.420   .     S
S1031  W1108   2.420   .     S
S1031  W1111   2.420   .     S
S1032  W1108   2.420   .     S
S1032  W1111   2.420   .     S
W1033  S1034   2.420   .     S
W1033  S1035   2.420   .     S
S1034  W1111   2.420   .     S
S1034  W1114   2.420   .     S
S1035  W1111   2.420   .     S
S1035  W1114   2.420   .     S
W1036  S1037   2.420   .     S
W1036  S1038   2.420   .     S
S1037  W1114   2.420   .     S
S1037  W1117   2.420   .     S
S1038  W1114   2.420   .     S
S1038  W1117   2.420   .     S
W1039  S1040   2.420   .     S
W1039  S1041   2.420   .     S
S1040  W1117   2.420   .     S
S1040  W1120   2.420   .     S
S1041  W1117   2.420   .     S
S1041  W1120   2.420   .     S
W1042  S1043   2.420   .     S
W1042  S1044   2.420   .     S
S1043  W1120   2.420   .     S
S1043  W1123   2.420   .     S
S1044  W1120   2.420   .     S
S1044  W1123   2.420   .     S
W1045  S1046   2.420   .     S
W1045  S1047   2.420   .     S
S1046  W1123   2.420   .     S
S1046  W1126   2.420   .     S
S1047  W1123   2.420   .     S
S1047  W1126   2.420   .     S
W1048  S1049   2.420   .     S
W1048  S1050   2.420   .     S
S1049  W1126   2.420   .     S
S1049  W1129   2.420   .     S
S1050  W1126   2.420   .     S
S1050  W1129   2.420   .     S
W1051  S1052   2.420   .     S
W1051  S1053   2.420   .     S
S1052  W1129   2.420   .     S
S1052  W1132   2.420   .     S
S1053  W1129   2.420   .     S
S1053  W1132   2.420   .     S
W1054  S1055   2.420   .     S
W1054  S1056   2.420   .     S
S1055  W1132   2.420   .     S
S1055  W1135   2.420   .     S
S1056  W1132   2.420   .     S
S1056  W1135   2.420   .     S
W1057  S1058   2.420   .     S
W1057  S1059   2.420   .     S
S1058  W1135   2.420   .     S
S1058  W1138   2.420   .     S
S1059  W1135   2.420   .     S
S1059  W1138   2.420   .     S
W1060  S1061   2.420   .     S
W1060  S1062   2.420   .     S
S1061  W1138   2.420   .     S
S1061  W1141   2.420   .     S
S1062  W1138   2.420   .     S
S1062  W1141   2.420   .     S
W1063  S1064   2.420   .     S
W1063  S1065   2.420   .     S
S1064  W1141   2.420   .     S
S1064  W1144   2.420   .     S
S1065  W1141   2.420   .     S
S1065  W1144   2.420   .     S
W1066  S1067   2.420   .     S
W1066  S1068   2.420   .     S
S1067  W1144   2.420   .     S
S1067  W1147   2.420   .     S
S1068  W1144   2.420   .     S
S1068  W1147   2.420   .     S
W1069  S1070   2.420   .     S
W1069  S1071   2.420   .     S
S1070  W1147   2.420   .     S
S1070  W1150   2.420   .     S
S1071  W1147   2.420   .     S
S1071  W1150   2.420   .     S
W1072  S1073   2.420   .     S
W1072  S1074   2.420   .     S
S1073  W1150   2.420   .     S
S1073  W1153   2.420   .     S
S1074  W1150   2.420   .     S
S1074  W1153   2.420   .     S
W1075  S1076   2.420   .     S
W1075  S1077   2.420   .     S
S1076  W1153   2.420   .     S
S1076  W1156   2.420   .     S
S1077  W1153   2.420   .     S
S1077  W1156   2.420   .     S
W1078  S1079   2.420   .     S
W1078  S1080   2.420   .     S
S1079  W1156   2.420   .     S
S1079  W1159   2.420   .     S
S1080  W1156   2.420   .     S
S1080  W1159   2.420   .     S
W1081  S1082   2.420   .     S
W1081  S1083   2.420   .     S
S1082  W1159   2.420   .     S
S1082  W1162   2.420   .     S
S1083  W1159   2.420   .     S
S1083  W1162   2.420   .     S
W1084  S1085   2.420   .     S
W1084  S1086   2.420   .     S
S1085  W1162   2.420   .     S
S1085  W1165   2.420   .     S
S1086  W1162   2.420   .     S
S1086  W1165   2.420   .     S
W1087  S1088   2.420   .     S
W1087  S1089   2.420   .     S
S1088  W1165   2.420   .     S
S1088  W1168   2.420   .     S
S1089  W1165   2.420   .     S
S1089  W1168   2.420   .     S
W1090  S1091   2.420   .     S
W1090  S1092   2.420   .     S
S1091  W1168   2.420   .     S
S1092  W1168   2.420   .     S
W1093  S1094   2.420   .     S
W1093  S1095   2.420   .     S
S1094  W1171   2.420   .     S
S1094  W1174   2.420   .     S
S1095  W1171   2.420   .     S
S1095  W1174   2.420   .     S
W1096  S1097   2.420   .     S
W1096  S1098   2.420   .     S
S1097  W1174   2.420   .     S
S1097  W1177   2.420   .     S
S1098  W1174   2.420   .     S
S1098  W1177   2.420   .     S
W1099  S1100   2.420   .     S
W1099  S1101   2.420   .     S
S1100  W1177   2.420   .     S
S1100  W1180   2.420   .     S
S1101  W1177   2.420   .     S
S1101  W1180   2.420   .     S
W1102  S1103   2.420   .     S
W1102  S1104   2.420   .     S
S1103  W1180   2.420   .     S
S1103  W1183   2.420   .     S
S1104  W1180   2.420   .     S
S1104  W1183   2.420   .     S
W1105  S1106   2.420   .     S
W1105  S1107   2.420   .     S
S1106  W1183   2.420   .     S
S1106  W1186   2.420   .     S
S1107  W1183   2.420   .     S
S1107  W1186   2.420   .     S
W1108  S1109   2.420   .     S
W1108  S1110   2.420   .     S
S1109  W1186   2.420   .     S
S1109  W1189   2.420   .     S
S1110  W1186   2.420   .     S
S1110  W1189   2.420   .     S
W1111  S1112   2.420   .     S
W1111  S1113   2.420   .     S
S1112  W1189   2.420   .     S
S1112  W1192   2.420   .     S
S1113  W1189   2.420   .     S
S1113  W1192   2.420   .     S
W1114  S1115   2.420   .     S
W1114  S1116   2.420   .     S
S1115  W1192   2.420   .     S
S1115  W1195   2.420   .     S
S1116  W1192   2.420   .     S
S1116  W1195   2.420   .     S
W1117  S1118   2.420   .     S
W1117  S1119   2.420   .     S
S1118  W1195   2.420   .     S
S1118  W1198   2.420   .     S
S1119  W1195   2.420   .     S
S1119  W1198   2.420   .     S
W1120  S1121   2.420   .     S
W1120  S1122   2.420   .     S
S1121  W1198   2.420   .     S
S1121  W1201   2.420   .     S
S1122  W1198   2.420   .     S
S1122  W1201   2.420   .     S
W1123  S1124   2.420   .     S
W1123  S1125   2.420   .     S
S1124  W1201   2.420   .     S
S1124  W1204   2.420   .     S
S1125  W1201   2.420   .     S
S1125  W1204   2.420   .     S
W1126  S1127   2.420   .     S
W1126  S1128   2.420   .     S
S1127  W1204   2.420   .     S
S1127  W1207   2.420   .     S
S1128  W1204   2.420   .     S
S1128  W1207   2.420   .     S
W1129  S1130   2.420   .     S
W1129  S1131   2.420   .     S
S1130  W1207   2.420   .     S
S1130  W1210   2.420   .     S
S1131  W1207   2.420   .     S
S1131  W1210   2.420   .     S
W1132  S1133   2.420   .     S
W1132  S1134   2.420   .     S
S1133  W1210   2.420   .     S
S1133  W1213   2.420   .     S
S1134  W1210   2.420   .     S
S1134  W1213   2.420   .     S
W1135  S1136   2.420   .     S
W1135  S1137   2.420   .     S
S1136  W1213   2.420   .     S
S1136  W1216   2.420   .     S
S1137  W1213   2.420   .     S
S1137  W1216   2.420   .     S
W1138  S1139   2.420   .     S
W1138  S1140   2.420   .     S
S1139  W1216   2.420   .     S
S1139  W1219   2.420   .     S
S1140  W1216   2.420   .     S
S1140  W1219   2.420   .     S
W1141  S1142   2.420   .     S
W1141  S1143   2.420   .     S
S1142  W1219   2.420   .     S
S1142  W1222   2.420   .     S
S1143  W1219   2.420   .     S
S1143  W1222   2.420   .     S
W1144  S1145   2.420   .     S
W1144  S1146   2.420   .     S
S1145  W1222   2.420   .     S
S1145  W1225   2.420   .     S
S1146  W1222   2.420   .     S
S1146  W1225   2.420   .     S
W1147  S1148   2.420   .     S
W1147  S1149   2.420   .     S
S1148  W1225   2.420   .     S
S1148  W1228   2.420   .     S
S1149  W1225   2.420   .     S
S1149  W1228   2.420   .     S
W1150  S1151   2.420   .     S
W1150  S1152   2.420   .     S
S1151  W1228   2.420   .     S
S1151  W1231   2.420   .     S
S1152  W1228   2.420   .     S
S1152  W1231   2.420   .     S
W1153  S1154   2.420   .     S
W1153  S1155   2.420   .     S
S1154  W1231   2.420   .     S
S1154  W1234   2.420   .     S
S1155  W1231   2.420   .     S
S1155  W1234   2.420   .     S
W1156  S1157   2.420   .     S
W1156  S1158   2.420   .     S
S1157  W1234   2.420   .     S
S1157  W1237   2.420   .     S
S1158  W1234   2.420   .     S
S1158  W1237   2.420   .     S
W1159  S1160   2.420   .     S
W1159  S1161   2.420   .     S
S1160  W1237   2.420   .     S
S1160  W1240   2.420   .     S
S1161  W1237   2.420   .     S
S1161  W1240   2.420   .     S
W1162  S1163   2.420   .     S
W1162  S1164   2.420   .     S
S1163  W1240   2.420   .     S
S1163  W1243   2.420   .     S
S1164  W1240   2.420   .     S
S1164  W1243   2.420   .     S
W1165  S1166   2.420   .     S
W1165  S1167   2.420   .     S
S1166  W1243   2.420   .     S
S1166  W1246   2.420   .     S
S1167  W1243   2.420   .     S
S1167  W1246   2.420   .     S
W1168  S1169   2.420   .     S
W1168  S1170   2.420   .     S
S1169  W1246   2.420   .     S
S1170  W1246   2.420   .     S
W1171  S1172   2.420   .     S
W1171  S1173   2.420   .     S
S1172  W1249   2.420   .     S
S1172  W1252   2.420   .     S
S1173  W1249   2.420   .     S
S1173  W1252   2.420   .     S
W1174  S1175   2.420   .     S
W1174  S1176   2.420   .     S
S1175  W1252   2.420   .     S
S1175  W1255   2.420   .     S
S1176  W1252   2.420   .     S
S1176  W1255   2.420   .     S
W1177  S1178   2.420   .     S
W1177  S1179   2.420   .     S
S1178  W1255   2.420   .     S
S1178  W1258   2.420   .     S
S1179  W1255   2.420   .     S
S1179  W1258   2.420   .     S
W1180  S1181   2.420   .     S
W1180  S1182   2.420   .     S
S1181  W1258   2.420   .     S
S1181  W1261   2.420   .     S
S1182  W1258   2.420   .     S
S1182  W1261   2.420   .     S
W1183  S1184   2.420   .     S
W1183  S1185   2.420   .     S
S1184  W1261   2.420   .     S
S1184  W1264   2.420   .     S
S1185  W1261   2.420   .     S
S1185  W1264   2.420   .     S
W1186  S1187   2.420   .     S
W1186  S1188   2.420   .     S
S1187  W1264   2.420   .     S
S1187  W1267   2.420   .     S
S1188  W1264   2.420   .     S
S1188  W1267   2.420   .     S
W1189  S1190   2.420   .     S
W1189  S1191   2.420   .     S
S1190  W1267   2.420   .     S
S1190  W1270   2.420   .     S
S1191  W1267   2.420   .     S
S1191  W1270   2.420   .     S
W1192  S1193   2.420   .     S
W1192  S1194   2.420   .     S
S1193  W1270   2.420   .     S
S1193  W1273   2.420   .     S
S1194  W1270   2.420   .     S
S1194  W1273   2.420   .     S
W1195  S1196   2.420   .     S
W1195  S1197   2.420   .     S
S1196  W1273   2.420   .     S
S1196  W1276   2.420   .     S
S1197  W1273   2.420   .     S
S1197  W1276   2.420   .     S
W1198  S1199   2.420   .     S
W1198  S1200   2.420   .     S
S1199  W1276   2.420   .     S
S1199  W1279   2.420   .     S
S1200  W1276   2.420   .     S
S1200  W1279   2.420   .     S
W1201  S1202   2.420   .     S
W1201  S1203   2.420   .     S
S1202  W1279   2.420   .     S
S1202  W1282   2.420   .     S
S1203  W1279   2.420   .     S
S1203  W1282   2.420   .     S
W1204  S1205   2.420   .     S
W1204  S1206   2.420   .     S
S1205  W1282   2.420   .     S
S1205  W1285   2.420   .     S
S1206  W1282   2.420   .     S
S1206  W1285   2.420   .     S
W1207  S1208   2.420   .     S
W1207  S1209   2.420   .     S
S1208  W1285   2.420   .     S
S1208  W1288   2.420   .     S
S1209  W1285   2.420   .     S
S1209  W1288   2.420   .     S
W1210  S1211   2.420   .     S
W1210  S1212   2.420   .     S
S1211  W1288   2.420   .     S
S1211  W1291   2.420   .     S
S1212  W1288   2.420   .     S
S1212  W1291   2.420   .     S
W1213  S1214   2.420   .     S
W1213  S1215   2.420   .     S
S1214  W1291   2.420   .     S
S1214  W1294   2.420   .     S
S1215  W1291   2.420   .     S
S1215  W1294   2.420   .     S
W1216  S1217   2.420   .     S
W1216  S1218   2.420   .     S
S1217  W1294   2.420   .     S
S1217  W1297   2.420   .     S
S1218  W1294   2.420   .     S
S1218  W1297   2.420   .     S
W1219  S1220   2.420   .     S
W1219  S1221   2.420   .     S
S1220  W1297   2.420   .     S
S1220  W1300   2.420   .     S
S1221  W1297   2.420   .     S
S1221  W1300   2.420   .     S
W1222  S1223   2.420   .     S
W1222  S1224   2.420   .     S
S1223  W1300   2.420   .     S
S1223  W1303   2.420   .     S
S1224  W1300   2.420   .     S
S1224  W1303   2.420   .     S
W1225  S1226   2.420   .     S
W1225  S1227   2.420   .     S
S1226  W1303   2.420   .     S
S1226  W1306   2.420   .     S
S1227  W1303   2.420   .     S
S1227  W1306   2.420   .     S
W1228  S1229   2.420   .     S
W1228  S1230   2.420   .     S
S1229  W1306   2.420   .     S
S1229  W1309   2.420   .     S
S1230  W1306   2.420   .     S
S1230  W1309   2.420   .     S
W1231  S1232   2.420   .     S
W1231  S1233   2.420   .     S
S1232  W1309   2.420   .     S
S1232  W1312   2.420   .     S
S1233  W1309   2.420   .     S
S1233  W1312   2.420   .     S
W1234  S1235   2.420   .     S
W1234  S1236   2.420   .     S
S1235  W1312   2.420   .     S
S1235  W1315   2.420   .     S
S1236  W1312   2.420   .     S
S1236  W1315   2.420   .     S
W1237  S1238   2.420   .     S
W1237  S1239   2.420   .     S
S1238  W1315   2.420   .     S
S1238  W1318   2.420   .     S
S1239  W1315   2.420   .     S
S1239  W1318   2.420   .     S
W1240  S1241   2.420   .     S
W1240  S1242   2.420   .     S
S1241  W1318   2.420   .     S
S1241  W1321   2.420   .     S
S1242  W1318   2.420   .     S
S1242  W1321   2.420   .     S
W1243  S1244   2.420   .     S
W1243  S1245   2.420   .     S
S1244  W1321   2.420   .     S
S1244  W1324   2.420   .     S
S1245  W1321   2.420   .     S
S1245  W1324   2.420   .     S
W1246  S1247   2.420   .     S
W1246  S1248   2.420   .     S
S1247  W1324   2.420   .     S
S1248  W1324   2.420   .     S
W1249  S1250   2.420   .     S
W1249  S1251   2.420   .     S
S1250  W1327   2.420   .     S
S1250  W1330   2.420   .     S
S1251  W1327   2.420   .     S
S1251  W1330   2.420   .     S
W1252  S1253   2.420   .     S
W1252  S1254   2.420   .     S
S1253  W1330   2.420   .     S
S1253  W1333   2.420   .     S
S1254  W1330   2.420   .     S
S1254  W1333   2.420   .     S
W1255  S1256   2.420   .     S
W1255  S1257   2.420   .     S
S1256  W1333   2.420   .     S
S1256  W1336   2.420   .     S
S1257  W1333   2.420   .     S
S1257  W1336   2.420   .     S
W1258  S1259   2.420   .     S
W1258  S1260   2.420   .     S
S1259  W1336   2.420   .     S
S1259  W1339   2.420   .     S
S1260  W1336   2.420   .     S
S1260  W1339   2.420   .     S
W1261  S1262   2.420   .     S
W1261  S1263   2.420   .     S
S1262  W1339   2.420   .     S
S1262  W1342   2.420   .     S
S1263  W1339   2.420   .     S
S1263  W1342   2.420   .     S
W1264  S1265   2.420   .     S
W1264  S1266   2.420   .     S
S1265  W1342   2.420   .     S
S1265  W1345   2.420   .     S
S1266  W1342   2.420   .     S
S1266  W1345   2.420   .     S
W1267  S1268   2.420   .     S
W1267  S1269   2.420   .     S
S1268  W1345   2.420   .     S
S1268  W1348   2.420   .     S
S1269  W1345   2.420   .     S
S1269  W1348   2.420   .     S
W1270  S1271   2.420   .     S
W1270  S1272   2.420   .     S
S1271  W1348   2.420   .     S
S1271  W1351   2.420   .     S
S1272  W1348   2.420   .     S
S1272  W1351   2.420   .     S
W1273  S1274   2.420   .     S
W1273  S1275   2.420   .     S
S1274  W1351   2.420   .     S
S1274  W1354   2.420   .     S
S1275  W1351   2.420   .     S
S1275  W1354   2.420   .     S
W1276  S1277   2.420   .     S
W1276  S1278   2.420   .     S
S1277  W1354   2.420   .     S
S1277  W1357   2.420   .     S
S1278  W1354   2.420   .     S
S1278  W1357   2.420   .     S
W1279  S1280   2.420   .     S
W1279  S1281   2.420   .     S
S1280  W1357   2.420   .     S
S1280  W1360   2.420   .     S
S1281  W1357   2.420   .     S
S1281  W1360   2.420   .     S
W1282  S1283   2.420   .     S
W1282  S1284   2.420   .     S
S1283  W1360   2.420   .     S
S1283  W1363   2.420   .     S
S1284  W1360   2.420   .     S
S1284  W1363   2.420   .     S
W1285  S1286   2.420   .     S
W1285  S1287   2.420   .     S
S1286  W1363   2.420   .     S
S1286  W1366   2.420   .     S
S1287  W1363   2.420   .     S
S1287  W1366   2.420   .     S
W1288  S1289   2.420   .     S
W1288  S1290   2.420   .     S
S1289  W1366   2.420   .     S
S1289  W1369   2.420   .     S
S1290  W1366   2.420   .     S
S1290  W1369   2.420   .     S
W1291  S1292   2.420   .     S
W1291  S1293   2.420   .     S
S1292  W1369   2.420   .     S
S1292  W1372   2.420   .     S
S1293  W1369   2.420   .     S
S1293  W1372   2.420   .     S
W1294  S1295   2.420   .     S
W1294  S1296   2.420   .     S
S1295  W1372   2.420   .     S
S1295  W1375   2.420   .     S
S1296  W1372   2.420   .     S
S1296  W1375   2.420   .     S
W1297  S1298   2.420   .     S
W1297  S1299   2.420   .     S
S1298  W1375   2.420   .     S
S1298  W1378   2.420   .     S
S1299  W1375   2.420   .     S
S1299  W1378   2.420   .     S
W1300  S1301   2.420   .     S
W1300  S1302   2.420   .     S
S1301  W1378   2.420   .     S
S1301  W1381   2.420   .     S
S1302  W1378   2.420   .     S
S1302  W1381   2.420   .     S
W1303  S1304   2.420   .     S
W1303  S1305   2.420   .     S
S1304  W1381   2.420   .     S
S1304  W1384   2.420   .     S
S1305  W1381   2.420   .     S
S1305  W1384   2.420   .     S
W1306  S1307   2.420   .     S
W1306  S1308   2.420   .     S
S1307  W1384   2.420   .     S
S1307  W1387   2.420   .     S
S1308  W1384   2.420   .     S
S1308  W1387   2.420   .     S
W1309  S1310   2.420   .     S
W1309  S1311   2.420   .     S
S1310  W1387   2.420   .     S
S1310  W1390   2.420   .     S
S1311  W1387   2.420   .     S
S1311  W1390   2.420   .     S
W1312  S1313   2.420   .     S
W1312  S1314   2.420   .     S
S1313  W1390   2.420   .     S
S1313  W1393   2.420   .     S
S1314  W1390   2.420   .     S
S1314  W1393   2.420   .     S
W1315  S1316   2.420   .     S
W1315  S1317   2.420   .     S
S1316  W1393   2.420   .     S
S1316  W1396   2.420   .     S
S1317  W1393   2.420   .     S
S1317  W1396   2.420   .     S
W1318  S1319   2.420   .     S
W1318  S1320   2.420   .     S
S1319  W1396   2.420   .     S
S1319  W1399   2.420   .     S
S1320  W1396   2.420   .     S
S1320  W1399   2.420   .     S
W1321  S1322   2.420   .     S
W1321  S1323   2.420   .     S
S1322  W1399   2.420   .     S
S1322  W1402   2.420   .     S
S1323  W1399   2.420   .     S
S1323  W1402   2.420   .     S
W1324  S1325   2.420   .     S
W1324  S1326   2.420   .     S
S1325  W1402   2.420   .     S
S1326  W1402   2.420   .     S
W1327  S1328   2.420   .     S
W1327  S1329   2.420   .     S
S1328  W1405   2.420   .     S
S1328  W1408   2.420   .     S
S1329  W1405   2.420   .     S
S1329  W1408   2.420   .     S
W1330  S1331   2.420   .     S
W1330  S1332   2.420   .     S
S1331  W1408   2.420   .     S
S1331  W1411   2.420   .     S
S1332  W1408   2.420   .     S
S1332  W1411   2.420   .     S
W1333  S1334   2.420   .     S
W1333  S1335   2.420   .     S
S1334  W1411   2.420   .     S
S1334  W1414   2.420   .     S
S1335  W1411   2.420   .     S
S1335  W1414   2.420   .     S
W1336  S1337   2.420   .     S
W1336  S1338   2.420   .     S
S1337  W1414   2.420   .     S
S1337  W1417   2.420   .     S
S1338  W1414   2.420   .     S
S1338  W1417   2.420   .     S
W1339  S1340   2.420   .     S
W1339  S1341   2.420   .     S
S1340  W1417   2.420   .     S
S1340  W1420   2.420   .     S
S1341  W1417   2.420   .     S
S1341  W1420   2.420   .     S
W1342  S1343   2.420   .     S
W1342  S1344   2.420   .     S
S1343  W1420   2.420   .     S
S1343  W1423   2.420   .     S
S1344  W1420   2.420   .     S
S1344  W1423   2.420   .     S
W1345  S1346   2.420   .     S
W1345  S1347   2.420   .     S
S1346  W1423   2.420   .     S
S1346  W1426   2.420   .     S
S1347  W1423   2.420   .     S
S1347  W1426   2.420   .     S
W1348  S1349   2.420   .     S
W1348  S1350   2.420   .     S
S1349  W1426   2.420   .     S
S1349  W1429   2.420   .     S
S1350  W1426   2.420   .     S
S1350  W1429   2.420   .     S
W1351  S1352   2.420   .     S
W1351  S1353   2.420   .     S
S1352  W1429   2.420   .     S
S1352  W1432   2.420   .     S
S1353  W1429   2.420   .     S
S1353  W1432   2.420   .     S
W1354  S1355   2.420   .     S
W1354  S1356   2.420   .     S
S1355  W1432   2.420   .     S
S1355  W1435   2.420   .     S
S1356  W1432   2.420   .     S
S1356  W1435   2.420   .     S
W1357  S1358   2.420   .     S
W1357  S1359   2.420   .     S
S1358  W1435   2.420   .     S
S1358  W1438   2.420   .     S
S1359  W1435   2.420   .     S
S1359  W1438   2.420   .     S
W1360  S1361   2.420   .     S
W1360  S1362   2.420   .     S
S1361  W1438   2.420   .     S
S1361  W1441   2.420   .     S
S1362  W1438   2.420   .     S
S1362  W1441   2.420   .     S
W1363  S1364   2.420   .     S
W1363  S1365   2.420   .     S
S1364  W1441   2.420   .     S
S1364  W1444   2.420   .     S
S1365  W1441   2.420   .     S
S1365  W1444   2.420   .     S
W1366  S1367   2.420   .     S
W1366  S1368   2.420   .     S
S1367  W1444   2.420   .     S
S1367  W1447   2.420   .     S
S1368  W1444   2.420   .     S
S1368  W1447   2.420   .     S
W1369  S1370   2.420   .     S
W1369  S1371   2.420   .     S
S1370  W1447   2.420   .     S
S1370  W1450   2.420   .     S
S1371  W1447   2.420   .     S
S1371  W1450   2.420   .     S
W1372  S1373   2.420   .     S
W1372  S1374   2.420   .     S
S1373  W1450   2.420   .     S
S1373  W1453   2.420   .     S
S1374  W1450   2.420   .     S
S1374  W1453   2.420   .     S
W1375  S1376   2.420   .     S
W1375  S1377   2.420   .     S
S1376  W1453   2.420   .     S
S1376  W1456   2.420   .     S
S1377  W1453   2.420   .     S
S1377  W1456   2.420   .     S
W1378  S1379   2.420   .     S
W1378  S1380   2.420   .     S
S1379  W1456   2.420   .     S
S1379  W1459   2.420   .     S
S1380  W1456   2.420   .     S
S1380  W1459   2.420   .     S
W1381  S1382   2.420   .     S
W1381  S1383   2.420   .     S
S1382  W1459   2.420   .     S
S1382  W1462   2.420   .     S
S1383  W1459   2.420   .     S
S1383  W1462   2.420   .     S
W1384  S1385   2.420   .     S
W1384  S1386   2.420   .     S
S1385  W1462   2.420   .     S
S1385  W1465   2.420   .     S
S1386  W1462   2.420   .     S
S1386  W1465   2.420   .     S
W1387  S1388   2.420   .     S
W1387  S1389   2.420   .     S
S1388  W1465   2.420   .     S
S1388  W1468   2.420   .     S
S1389  W1465   2.420   .     S
S1389  W1468   2.420   .     S
W1390  S1391   2.420   .     S
W1390  S1392   2.420   .     S
S1391  W1468   2.420   .     S
S1391  W1471   2.420   .     S
S1392  W1468   2.420   .     S
S1392  W1471   2.420   .     S
W1393  S1394   2.420   .     S
W1393  S1395   2.420   .     S
S1394  W1471   2.420   .     S
S1394  W1474   2.420   .     S
S1395  W1471   2.420   .     S
S1395  W1474   2.420   .     S
W1396  S1397   2.420   .     S
W1396  S1398   2.420   .     S
S1397  W1474   2.420   .     S
S1397  W1477   2.420   .     S
S1398  W1474   2.420   .     S
S1398  W1477   2.420   .     S
W1399  S1400   2.420   .     S
W1399  S1401   2.420   .     S
S1400  W1477   2.420   .     S
S1400  W1480   2.420   .     S
S1401  W1477   2.420   .     S
S1401  W1480   2.420   .     S
W1402  S1403   2.420   .     S
W1402  S1404   2.420   .     S
S1403  W1480   2.420   .     S
S1404  W1480   2.420   .     S
W1405  S1406   2.420   .     S
W1405  S1407   2.420   .     S
S1406  W1483   2.420   .     S
S1406  W1486   2.420   .     S
S1407  W1483   2.420   .     S
S1407  W1486   2.420   .     S
W1408  S1409   2.420   .     S
W1408  S1410   2.420   .     S
S1409  W1486   2.420   .     S
S1409  W1489   2.420   .     S
S1410  W1486   2.420   .     S
S1410  W1489   2.420   .     S
W1411  S1412   2.420   .     S
W1411  S1413   2.420   .     S
S1412  W1489   2.420   .     S
S1412  W1492   2.420   .     S
S1413  W1489   2.420   .     S
S1413  W1492   2.420   .     S
W1414  S1415   2.420   .     S
W1414  S1416   2.420   .     S
S1415  W1492   2.420   .     S
S1415  W1495   2.420   .     S
S1416  W1492   2.420   .     S
S1416  W1495   2.420   .     S
W1417  S1418   2.420   .     S
W1417  S1419   2.420   .     S
S1418  W1495   2.420   .     S
S1418  W1498   2.420   .     S
S1419  W1495   2.420   .     S
S1419  W1498   2.420   .     S
W1420  S1421   2.420   .     S
W1420  S1422   2.420   .     S
S1421  W1498   2.420   .     S
S1421  W1501   2.420   .     S
S1422  W1498   2.420   .     S
S1422  W1501   2.420   .     S
W1423  S1424   2.420   .     S
W1423  S1425   2.420   .     S
S1424  W1501   2.420   .     S
S1424  W1504   2.420   .     S
S1425  W1501   2.420   .     S
S1425  W1504   2.420   .     S
W1426  S1427   2.420   .     S
W1426  S1428   2.420   .     S
S1427  W1504   2.420   .     S
S1427  W1507   2.420   .     S
S1428  W1504   2.420   .     S
S1428  W1507   2.420   .     S
W1429  S1430   2.420   .     S
W1429  S1431   2.420   .     S
S1430  W1507   2.420   .     S
S1430  W1510   2.420   .     S
S1431  W1507   2.420   .     S
S1431  W1510   2.420   .     S
W1432  S1433   2.420   .     S
W1432  S1434   2.420   .     S
S1433  W1510   2.420   .     S
S1433  W1513   2.420   .     S
S1434  W1510   2.420   .     S
S1434  W1513   2.420   .     S
W1435  S1436   2.420   .     S
W1435  S1437   2.420   .     S
S1436  W1513   2.420   .     S
S1436  W1516   2.420   .     S
S1437  W1513   2.420   .     S
S1437  W1516   2.420   .     S
W1438  S1439   2.420   .     S
W1438  S1440   2.420   .     S
S1439  W1516   2.420   .     S
S1439  W1519   2.420   .     S
S1440  W1516   2.420   .     S
S1440  W1519   2.420   .     S
W1441  S1442   2.420   .     S
W1441  S1443   2.420   .     S
S1442  W1519   2.420   .     S
S1442  W1522   2.420   .     S
S1443  W1519   2.420   .     S
S1443  W1522   2.420   .     S
W1444  S1445   2.420   .     S
W1444  S1446   2.420   .     S
S1445  W1522   2.420   .     S
S1445  W1525   2.420   .     S
S1446  W1522   2.420   .     S
S1446  W1525   2.420   .     S
W1447  S1448   2.420   .     S
W1447  S1449   2.420   .     S
S1448  W1525   2.420   .     S
S1448  W1528   2.420   .     S
S1449  W1525   2.420   .     S
S1449  W1528   2.420   .     S
W1450  S1451   2.420   .     S
W1450  S1452   2.420   .     S
S1451  W1528   2.420   .     S
S1451  W1531   2.420   .     S
S1452  W1528   2.420   .     S
S1452  W1531   2.420   .     S
W1453  S1454   2.420   .     S
W1453  S1455   2.420   .     S
S1454  W1531   2.420   .     S
S1454  W1534   2.420   .     S
S1455  W1531   2.420   .     S
S1455  W1534   2.420   .     S
W1456  S1457   2.420   .     S
W1456  S1458   2.420   .     S
S1457  W1534   2.420   .     S
S1457  W1537   2.420   .     S
S1458  W1534   2.420   .     S
S1458  W1537   2.420   .     S
W1459  S1460   2.420   .     S
W1459  S1461   2.420   .     S
S1460  W1537   2.420   .     S
S1460  W1540   2.420   .     S
S1461  W1537   2.420   .     S
S1461  W1540   2.420   .     S
W1462  S1463   2.420   .     S
W1462  S1464   2.420   .     S
S1463  W1540   2.420   .     S
S1463  W1543   2.420   .     S
S1464  W1540   2.420   .     S
S1464  W1543   2.420   .     S
W1465  S1466   2.420   .     S
W1465  S1467   2.420   .     S
S1466  W1543   2.420   .     S
S1466  W1546   2.420   .     S
S1467  W1543   2.420   .     S
S1467  W1546   2.420   .     S
W1468  S1469   2.420   .     S
W1468  S1470   2.420   .     S
S1469  W1546   2.420   .     S
S1469  W1549   2.420   .     S
S1470  W1546   2.420   .     S
S1470  W1549   2.420   .     S
W1471  S1472   2.420   .     S
W1471  S1473   2.420   .     S
S1472  W1549   2.420   .     S
S1472  W1552   2.420   .     S
S1473  W1549   2.420   .     S
S1473  W1552   2.420   .     S
W1474  S1475   2.420   .     S
W1474  S1476   2.420   .     S
S1475  W1552   2.420   .     S
S1475  W1555   2.420   .     S
S1476  W1552   2.420   .     S
S1476  W1555   2.420   .     S
W1477  S1478   2.420   .     S
W1477  S1479   2.420   .     S
S1478  W1555   2.420   .     S
S1478  W1558   2.420   .     S
S1479  W1555   2.420   .     S
S1479  W1558   2.420   .     S
W1480  S1481   2.420   .     S
W1480  S1482   2.420   .     S
S1481  W1558   2.420   .     S
S1482  W1558   2.420   .     S
W1483  S1484   2.420   .     S
W1483  S1485   2.420   .     S
S1484  W1561   2.420   .     S
S1484  W1564   2.420   .     S
S1485  W1561   2.420   .     S
S1485  W1564   2.420   .     S
W1486  S1487   2.420   .     S
W1486  S1488   2.420   .     S
S1487  W1564   2.420   .     S
S1487  W1567   2.420   .     S
S1488  W1564   2.420   .     S
S1488  W1567   2.420   .     S
W1489  S1490   2.420   .     S
W1489  S1491   2.420   .     S
S1490  W1567   2.420   .     S
S1490  W1570   2.420   .     S
S1491  W1567   2.420   .     S
S1491  W1570   2.420   .     S
W1492  S1493   2.420   .     S
W1492  S1494   2.420   .     S
S1493  W1570   2.420   .     S
S1493  W1573   2.420   .     S
S1494  W1570   2.420   .     S
S1494  W1573   2.420   .     S
W1495  S1496   2.420   .     S
W1495  S1497   2.420   .     S
S1496  W1573   2.420   .     S
S1496  W1576   2.420   .     S
S1497  W1573   2.420   .     S
S1497  W1576   2.420   .     S
W1498  S1499   2.420   .     S
W1498  S1500   2.420   .     S
S1499  W1576   2.420   .     S
S1499  W1579   2.420   .     S
S1500  W1576   2.420   .     S
S1500  W1579   2.420   .     S
W1501  S1502   2.420   .     S
W1501  S1503   2.420   .     S
S1502  W1579   2.420   .     S
S1502  W1582   2.420   .     S
S1503  W1579   2.420   .     S
S1503  W1582   2.420   .     S
W1504  S1505   2.420   .     S
W1504  S1506   2.420   .     S
S1505  W1582   2.420   .     S
S1505  W1585   2.420   .     S
S1506  W1582   2.420   .     S
S1506  W1585   2.420   .     S
W1507  S1508   2.420   .     S
W1507  S1509   2.420   .     S
S1508  W1585   2.420   .     S
S1508  W1588   2.420   .     S
S1509  W1585   2.420   .     S
S1509  W1588   2.420   .     S
W1510  S1511   2.420   .     S
W1510  S1512   2.420   .     S
S1511  W1588   2.420   .     S
S1511  W1591   2.420   .     S
S1512  W1588   2.420   .     S
S1512  W1591   2.420   .     S
W1513  S1514   2.420   .     S
W1513  S1515   2.420   .     S
S1514  W1591   2.420   .     S
S1514  W1594   2.420   .     S
S1515  W1591   2.420   .     S
S1515  W1594   2.420   .     S
W1516  S1517   2.420   .     S
W1516  S1518   2.420   .     S
S1517  W1594   2.420   .     S
S1517  W1597   2.420   .     S
S1518  W1594   2.420   .     S
S1518  W1597   2.420   .     S
W1519  S1520   2.420   .     S
W1519  S1521   2.420   .     S
S1520  W1597   2.420   .     S
S1520  W1600   2.420   .     S
S1521  W1597   2.420   .     S
S1521  W1600   2.420   .     S
W1522  S1523   2.420   .     S
W1522  S1524   2.420   .     S
S1523  W1600   2.420   .     S
S1523  W1603   2.420   .     S
S1524  W1600   2.420   .     S
S1524  W1603   2.420   .     S
W1525  S1526   2.420   .     S
W1525  S1527   2.420   .     S
S1526  W1603   2.420   .     S
S1526  W1606   2.420   .     S
S1527  W1603   2.420   .     S
S1527  W1606   2.420   .     S
W1528  S1529   2.420   .     S
W1528  S1530   2.420   .     S
S1529  W1606   2.420   .     S
S1529  W1609   2.420   .     S
S1530  W1606   2.420   .     S
S1530  W1609   2.420   .     S
W1531  S1532   2.420   .     S
W1531  S1533   2.420   .     S
S1532  W1609   2.420   .     S
S1532  W1612   2.420   .     S
S1533  W1609   2.420   .     S
S1533  W1612   2.420   .     S
W1534  S1535   2.420   .     S
W1534  S1536   2.420   .     S
S1535  W1612   2.420   .     S
S1535  W1615   2.420   .     S
S1536  W1612   2.420   .     S
S1536  W1615   2.420   .     S
W1537  S1538   2.420   .     S
W1537  S1539   2.420   .     S
S1538  W1615   2.420   .     S
S1538  W1618   2.420   .     S
S1539  W1615   2.420   .     S
S1539  W1618   2.420   .     S
W1540  S1541   2.420   .     S
W1540  S1542   2.420   .     S
S1541  W1618   2.420   .     S
S1541  W1621   2.420   .     S
S1542  W1618   2.420   .     S
S1542  W1621   2.420   .     S
W1543  S1544   2.420   .     S
W1543  S1545   2.420   .     S
S1544  W1621   2.420   .     S
S1544  W1624   2.420   .     S
S1545  W1621   2.420   .     S
S1545  W1624   2.420   .     S
W1546  S1547   2.420   .     S
W1546  S1548   2.420   .     S
S1547  W1624   2.420   .     S
S1547  W1627   2.420   .     S
S1548  W1624   2.420   .     S
S1548  W1627   2.420   .     S
W1549  S1550   2.420   .     S
W1549  S1551   2.420   .     S
S1550  W1627   2.420   .     S
S1550  W1630   2.420   .     S
S1551  W1627   2.420   .     S
S1551  W1630   2.420   .     S
W1552  S1553   2.420   .     S
W1552  S1554   2.420   .     S
S1553  W1630   2.420   .     S
S1553  W1633   2.420   .     S
S1554  W1630   2.420   .     S
S1554  W1633   2.420   .     S
W1555  S1556   2.420   .     S
W1555  S1557   2.420   .     S
S1556  W1633   2.420   .     S
S1556  W1636   2.420   .     S
S1557  W1633   2.420   .     S
S1557  W1636   2.420   .     S
W1558  S1559   2.420   .     S
W1558  S1560   2.420   .     S
S1559  W1636   2.420   .     S
S1560  W1636   2.420   .     S
W1561  S1562   2.420   .     S
W1561  S1563   2.420   .     S
S1562  W1639   2.420   .     S
S1562  W1642   2.420   .     S
S1563  W1639   2.420   .     S
S1563  W1642   2.420   .     S
W1564  S1565   2.420   .     S
W1564  S1566   2.420   .     S
S1565  W1642   2.420   .     S
S1565  W1645   2.420   .     S
S1566  W1642   2.420   .     S
S1566  W1645   2.420   .     S
W1567  S1568   2.420   .     S
W1567  S1569   2.420   .     S
S1568  W1645   2.420   .     S
S1568  W1648   2.420   .     S
S1569  W1645   2.420   .     S
S1569  W1648   2.420   .     S
W1570  S1571   2.420   .     S
W1570  S1572   2.420   .     S
S1571  W1648   2.420   .     S
S1571  W1651   2.420   .     S
S1572  W1648   2.420   .     S
S1572  W1651   2.420   .     S
W1573  S1574   2.420   .     S
W1573  S1575   2.420   .     S
S1574  W1651   2.420   .     S
S1574  W1654   2.420   .     S
S1575  W1651   2.420   .     S
S1575  W1654   2.420   .     S
W1576  S1577   2.420   .     S
W1576  S1578   2.420   .     S
S1577  W1654   2.420   .     S
S1577  W1657   2.420   .     S
S1578  W1654   2.420   .     S
S1578  W1657   2.420   .     S
W1579  S1580   2.420   .     S
W1579  S1581   2.420   .     S
S1580  W1657   2.420   .     S
S1580  W1660   2.420   .     S
S1581  W1657   2.420   .     S
S1581  W1660   2.420   .     S
W1582  S1583   2.420   .     S
W1582  S1584   2.420   .     S
S1583  W1660   2.420   .     S
S1583  W1663   2.420   .     S
S1584  W1660   2.420   .     S
S1584  W1663   2.420   .     S
W1585  S1586   2.420   .     S
W1585  S1587   2.420   .     S
S1586  W1663   2.420   .     S
S1586  W1666   2.420   .     S
S1587  W1663   2.420   .     S
S1587  W1666   2.420   .     S
W1588  S1589   2.420   .     S
W1588  S1590   2.420   .     S
S1589  W1666   2.420   .     S
S1589  W1669   2.420   .     S
S1590  W1666   2.420   .     S
S1590  W1669   2.420   .     S
W1591  S1592   2.420   .     S
W1591  S1593   2.420   .     S
S1592  W1669   2.420   .     S
S1592  W1672   2.420   .     S
S1593  W1669   2.420   .     S
S1593  W1672   2.420   .     S
W1594  S1595   2.420   .     S
W1594  S1596   2.420   .     S
S1595  W1672   2.420   .     S
S1595  W1675   2.420   .     S
S1596  W1672   2.420   .     S
S1596  W1675   2.420   .     S
W1597  S1598   2.420   .     S
W1597  S1599   2.420   .     S
S1598  W1675   2.420   .     S
S1598  W1678   2.420   .     S
S1599  W1675   2.420   .     S
S1599  W1678   2.420   .     S
W1600  S1601   2.420   .     S
W1600  S1602   2.420   .     S
S1601  W1678   2.420   .     S
S1601  W1681   2.420   .     S
S1602  W1678   2.420   .     S
S1602  W1681   2.420   .     S
W1603  S1604   2.420   .     S
W1603  S1605   2.420   .     S
S1604  W1681   2.420   .     S
S1604  W1684   2.420   .     S
S1605  W1681   2.420   .     S
S1605  W1684   2.420   .     S
W1606  S1607   2.420   .     S
W1606  S1608   2.420   .     S
S1607  W1684   2.420   .     S
S1607  W1687   2.420   .     S
S1608  W1684   2.420   .     S
S1608  W1687   2.420   .     S
W1609  S1610   2.420   .     S
W1609  S1611   2.420   .     S
S1610  W1687   2.420   .     S
S1610  W1690   2.420   .     S
S1611  W1687   2.420   .     S
S1611  W1690   2.420   .     S
W1612  S1613   2.420   .     S
W1612  S1614   2.420   .     S
S1613  W1690   2.420   .     S
S1613  W1693   2.420   .     S
S1614  W1690   2.420   .     S
S1614  W1693   2.420   .     S
W1615  S1616   2.420   .     S
W1615  S1617   2.420   .     S
S1616  W1693   2.420   .     S
S1616  W1696   2.420   .     S
S1617  W1693   2.420   .     S
S1617  W1696   2.420   .     S
W1618  S1619   2.420   .     S
W1618  S1620   2.420   .     S
S1619  W1696   2.420   .     S
S1619  W1699   2.420   .     S
S1620  W1696   2.420   .     S
S1620  W1699   2.420   .     S
W1621  S1622   2.420   .     S
W1621  S1623   2.420   .     S
S1622  W1699   2.420   .     S
S1622  W1702   2.420   .     S
S1623  W1699   2.420   .     S
S1623  W1702   2.420   .     S
W1624  S1625   2.420   .     S
W1624  S1626   2.420   .     S
S1625  W1702   2.420   .     S
S1625  W1705   2.420   .     S
S1626  W1702   2.420   .     S
S1626  W1705   2.420   .     S
W1627  S1628   2.420   .     S
W1627  S1629   2.420   .     S
S1628  W1705   2.420   .     S
S1628  W1708   2.420   .     S
S1629  W1705   2.420   .     S
S1629  W1708   2.420   .     S
W1630  S1631   2.420   .     S
W1630  S1632   2.420   .     S
S1631  W1708   2.420   .     S
S1631  W1711   2.420   .     S
S1632  W1708   2.420   .     S
S1632  W1711   2.420   .     S
W1633  S1634   2.420   .     S
W1633  S1635   2.420   .     S
S1634  W1711   2.420   .     S
S1634  W1714   2.420   .     S
S1635  W1711   2.420   .     S
S1635  W1714   2.420   .     S
W1636  S1637   2.420   .     S
W1636  S1638   2.420   .     S
S1637  W1714   2.420   .     S
S1638  W1714   2.420   .     S
W1639  S1640   2.420   .     S
W1639  S1641   2.420   .     S
S1640  W1717   2.420   .     S
S1640  W1720   2.420   .     S
S1641  W1717   2.420   .     S
S1641  W1720   2.420   .     S
W1642  S1643   2.420   .     S
W1642  S1644   2.420   .     S
S1643  W1720   2.420   .     S
S1643  W1723   2.420   .     S
S1644  W1720   2.420   .     S
S1644  W1723   2.420   .     S
W1645  S1646   2.420   .     S
W1645  S1647   2.420   .     S
S1646  W1723   2.420   .     S
S1646  W1726   2.420   .     S
S1647  W1723   2.420   .     S
S1647  W1726   2.420   .     S
W1648  S1649   2.420   .     S
W1648  S1650   2.420   .     S
S1649  W1726   2.420   .     S
S1649  W1729   2.420   .     S
S1650  W1726   2.420   .     S
S1650  W1729   2.420   .     S
W1651  S1652   2.420   .     S
W1651  S1653   2.420   .     S
S1652  W1729   2.420   .     S
S1652  W1732   2.420   .     S
S1653  W1729   2.420   .     S
S1653  W1732   2.420   .     S
W1654  S1655   2.420   .     S
W1654  S1656   2.420   .     S
S1655  W1732   2.420   .     S
S1655  W1735   2.420   .     S
S1656  W1732   2.420   .     S
S1656  W1735   2.420   .     S
W1657  S1658   2.420   .     S
W1657  S1659   2.420   .     S
S1658  W1735   2.420   .     S
S1658  W1738   2.420   .     S
S1659  W1735   2.420   .     S
S1659  W1738   2.420   .     S
W1660  S1661   2.420   .     S
W1660  S1662   2.420   .     S
S1661  W1738   2.420   .     S
S1661  W1741   2.420   .     S
S1662  W1738   2.420   .     S
S1662  W1741   2.420   .     S
W1663  S1664   2.420   .     S
W1663  S1665   2.420   .     S
S1664  W1741   2.420   .     S
S1664  W1744   2.420   .     S
S1665  W1741   2.420   .     S
S1665  W1744   2.420   .     S
W1666  S1667   2.420   .     S
W1666  S1668   2.420   .     S
S1667  W1744   2.420   .     S
S1667  W1747   2.420   .     S
S1668  W1744   2.420   .     S
S1668  W1747   2.420   .     S
W1669  S1670   2.420   .     S
W1669  S1671   2.420   .     S
S1670  W1747   2.420   .     S
S1670  W1750   2.420   .     S
S1671  W1747   2.420   .     S
S1671  W1750   2.420   .     S
W1672  S1673   2.420   .     S
W1672  S1674   2.420   .     S
S1673  W1750   2.420   .     S
S1673  W1753   2.420   .     S
S1674  W1750   2.420   .     S
S1674  W1753   2.420   .     S
W1675  S1676   2.420   .     S
W1675  S1677   2.420   .     S
S1676  W1753   2.420   .     S
S1676  W1756   2.420   .     S
S1677  W1753   2.420   .     S
S1677  W1756   2.420   .     S
W1678  S1679   2.420   .     S
W1678  S1680   2.420   .     S
S1679  W1756   2.420   .     S
S1679  W1759   2.420   .     S
S1680  W1756   2.420   .     S
S1680  W1759   2.420   .     S
W1681  S1682   2.420   .     S
W1681  S1683   2.420   .     S
S1682  W1759   2.420   .     S
S1682  W1762   2.420   .     S
S1683  W1759   2.420   .     S
S1683  W1762   2.420   .     S
W1684  S1685   2.420   .     S
W1684  S1686   2.420   .     S
S1685  W1762   2.420   .     S
S1685  W1765   2.420   .     S
S1686  W1762   2.420   .     S
S1686  W1765   2.420   .     S
W1687  S1688   2.420   .     S
W1687  S1689   2.420   .     S
S1688  W1765   2.420   .     S
S1688  W1768   2.420   .     S
S1689  W1765   2.420   .     S
S1689  W1768   2.420   .     S
W1690  S1691   2.420   .     S
W1690  S1692   2.420   .     S
S1691  W1768   2.420   .     S
S1691  W1771   2.420   .     S
S1692  W1768   2.420   .     S
S1692  W1771   2.420   .     S
W1693  S1694   2.420   .     S
W1693  S1695   2.420   .     S
S1694  W1771   2.420   .     S
S1694  W1774   2.420   .     S
S1695  W1771   2.420   .     S
S1695  W1774   2.420   .     S
W1696  S1697   2.420   .     S
W1696  S1698   2.420   .     S
S1697  W1774   2.420   .     S
S1697  W1777   2.420   .     S
S1698  W1774   2.420   .     S
S1698  W1777   2.420   .     S
W1699  S1700   2.420   .     S
W1699  S1701   2.420   .     S
S1700  W1777   2.420   .     S
S1700  W1780   2.420   .     S
S1701  W1777   2.420   .     S
S1701  W1780   2.420   .     S
W1702  S1703   2.420   .     S
W1702  S1704   2.420   .     S
S1703  W1780   2.420   .     S
S1703  W1783   2.420   .     S
S1704  W1780   2.420   .     S
S1704  W1783   2.420   .     S
W1705  S1706   2.420   .     S
W1705  S1707   2.420   .     S
S1706  W1783   2.420   .     S
S1706  W1786   2.420   .     S
S1707  W1783   2.420   .     S
S1707  W1786   2.420   .     S
W1708  S1709   2.420   .     S
W1708  S1710   2.420   .     S
S1709  W1786   2.420   .     S
S1709  W1789   2.420   .     S
S1710  W1786   2.420   .     S
S1710  W1789   2.420   .     S
W1711  S1712   2.420   .     S
W1711  S1713   2.420   .     S
S1712  W1789   2.420   .     S
S1712  W1792   2.420   .     S
S1713  W1789   2.420   .     S
S1713  W1792   2.420   .     S
W1714  S1715   2.420   .     S
W1714  S1716   2.420   .     S
S1715  W1792   2.420   .     S
S1716  W1792   2.420   .     S
W1717  S1718   2.420   .     S
W1717  S1719   2.420   .     S
S1718  W1795   2.420   .     S
S1718  W1798   2.420   .     S
S1719  W1795   2.420   .     S
S1719  W1798   2.420   .     S
W1720  S1721   2.420   .     S
W1720  S1722   2.420   .     S
S1721  W1798   2.420   .     S
S1721  W1801   2.420   .     S
S1722  W1798   2.420   .     S
S1722  W1801   2.420   .     S
W1723  S1724   2.420   .     S
W1723  S1725   2.420   .     S
S1724  W1801   2.420   .     S
S1724  W1804   2.420   .     S
S1725  W1801   2.420   .     S
S1725  W1804   2.420   .     S
W1726  S1727   2.420   .     S
W1726  S1728   2.420   .     S
S1727  W1804   2.420   .     S
S1727  W1807   2.420   .     S
S1728  W1804   2.420   .     S
S1728  W1807   2.420   .     S
W1729  S1730   2.420   .     S
W1729  S1731   2.420   .     S
S1730  W1807   2.420   .     S
S1730  W1810   2.420   .     S
S1731  W1807   2.420   .     S
S1731  W1810   2.420   .     S
W1732  S1733   2.420   .     S
W1732  S1734   2.420   .     S
S1733  W1810   2.420   .     S
S1733  W1813   2.420   .     S
S1734  W1810   2.420   .     S
S1734  W1813   2.420   .     S
W1735  S1736   2.420   .     S
W1735  S1737   2.420   .     S
S1736  W1813   2.420   .     S
S1736  W1816   2.420   .     S
S1737  W1813   2.420   .     S
S1737  W1816   2.420   .     S
W1738  S1739   2.420   .     S
W1738  S1740   2.420   .     S
S1739  W1816   2.420   .     S
S1739  W1819   2.420   .     S
S1740  W1816   2.420   .     S
S1740  W1819   2.420   .     S
W1741  S1742   2.420   .     S
W1741  S1743   2.420   .     S
S1742  W1819   2.420   .     S
S1742  W1822   2.420   .     S
S1743  W1819   2.420   .     S
S1743  W1822   2.420   .     S
W1744  S1745   2.420   .     S
W1744  S1746   2.420   .     S
S1745  W1822   2.420   .     S
S1745  W1825   2.420   .     S
S1746  W1822   2.420   .     S
S1746  W1825   2.420   .     S
W1747  S1748   2.420   .     S
W1747  S1749   2.420   .     S
S1748  W1825   2.420   .     S
S1748  W1828   2.420   .     S
S1749  W1825   2.420   .     S
S1749  W1828   2.420   .     S
W1750  S1751   2.420   .     S
W1750  S1752   2.420   .     S
S1751  W1828   2.420   .     S
S1751  W1831   2.420   .     S
S1752  W1828   2.420   .     S
S1752  W1831   2.420   .     S
W1753  S1754   2.420   .     S
W1753  S1755   2.420   .     S
S1754  W1831   2.420   .     S
S1754  W1834   2.420   .     S
S1755  W1831   2.420   .     S
S1755  W1834   2.420   .     S
W1756  S1757   2.420   .     S
W1756  S1758   2.420   .     S
S1757  W1834   2.420   .     S
S1757  W1837   2.420   .     S
S1758  W1834   2.420   .     S
S1758  W1837   2.420   .     S
W1759  S1760   2.420   .     S
W1759  S1761   2.420   .     S
S1760  W1837   2.420   .     S
S1760  W1840   2.420   .     S
S1761  W1837   2.420   .     S
S1761  W1840   2.420   .     S
W1762  S1763   2.420   .     S
W1762  S1764   2.420   .     S
S1763  W1840   2.420   .     S
S1763  W1843   2.420   .     S
S1764  W1840   2.420   .     S
S1764  W1843   2.420   .     S
W1765  S1766   2.420   .     S
W1765  S1767   2.420   .     S
S1766  W1843   2.420   .     S
S1766  W1846   2.420   .     S
S1767  W1843   2.420   .     S
S1767  W1846   2.420   .     S
W1768  S1769   2.420   .     S
W1768  S1770   2.420   .     S
S1769  W1846   2.420   .     S
S1769  W1849   2.420   .     S
S1770  W1846   2.420   .     S
S1770  W1849   2.420   .     S
W1771  S1772   2.420   .     S
W1771  S1773   2.420   .     S
S1772  W1849   2.420   .     S
S1772  W1852   2.420   .     S
S1773  W1849   2.420   .     S
S1773  W1852   2.420   .     S
W1774  S1775   2.420   .     S
W1774  S1776   2.420   .     S
S1775  W1852   2.420   .     S
S1775  W1855   2.420   .     S
S1776  W1852   2.420   .     S
S1776  W1855   2.420   .     S
W1777  S1778   2.420   .     S
W1777  S1779   2.420   .     S
S1778  W1855   2.420   .     S
S1778  W1858   2.420   .     S
S1779  W1855   2.420   .     S
S1779  W1858   2.420   .     S
W1780  S1781   2.420   .     S
W1780  S1782   2.420   .     S
S1781  W1858   2.420   .     S
S1781  W1861   2.420   .     S
S1782  W1858   2.420   .     S
S1782  W1861   2.420   .     S
W1783  S1784   2.420   .     S
W1783  S1785   2.420   .     S
S1784  W1861   2.420   .     S
S1784  W1864   2.420   .     S
S1785  W1861   2.420   .     S
S1785  W1864   2.420   .     S
W1786  S1787   2.420   .     S
W1786  S1788   2.420   .     S
S1787  W1864   2.420   .     S
S1787  W1867   2.420   .     S
S1788  W1864   2.420   .     S
S1788  W1867   2.420   .     S
W1789  S1790   2.420   .     S
W1789  S1791   2.420   .     S
S1790  W1867   2.420   .     S
S1790  W1870   2.420   .     S
S1791  W1867   2.420   .     S
S1791  W1870   2.420   .     S
W1792  S1793   2.420   .     S
W1792  S1794   2.420   .     S
S1793  W1870   2.420   .     S
S1794  W1870   2.420   .     S
W1795  S1796   2.420   .     S
W1795  S1797   2.420   .     S
S1796  W1873   2.420   .     S
S1796  W1876   2.420   .     S
S1797  W1873   2.420   .     S
S1797  W1876   2.420   .     S
W1798  S1799   2.420   .     S
W1798  S1800   2.420   .     S
S1799  W1876   2.420   .     S
S1799  W1879   2.420   .     S
S1800  W1876   2.420   .     S
S1800  W1879   2.420   .     S
W1801  S1802   2.420   .     S
W1801  S1803   2.420   .     S
S1802  W1879   2.420   .     S
S1802  W1882   2.420   .     S
S1803  W1879   2.420   .     S
S1803  W1882   2.420   .     S
W1804  S1805   2.420   .     S
W1804  S1806   2.420   .     S
S1805  W1882   2.420   .     S
S1805  W1885   2.420   .     S
S1805  S1883   2.290   .     S
S1806  W1882   2.420   .     S
S1806  W1885   2.420   .     S
S1806  S1884   2.246   .     D
W1807  S1808   2.420   .     S
W1807  S1809   2.420   .     S
S1808  W1885   2.420   .     S
S1808  W1888   2.420   .     S
S1809  W1885   2.420   .     S
S1809  W1888   2.420   .     S
W1810  S1811   2.420   .     S
W1810  S1812   2.420   .     S
S1811  W1888   2.420   .     S
S1811  W1891   2.420   .     S
S1812  W1888   2.420   .     S
S1812  W1891   2.420   .     S
W1813  S1814   2.420   .     S
W1813  S1815   2.420   .     S
S1814  W1891   2.420   .     S
S1814  W1894   2.420   .     S
S1815  W1891   2.420   .     S
S1815  W1894   2.420   .     S
W1816  S1817   2.420   .     S
W1816  S1818   2.420   .     S
S1817  W1894   2.420   .     S
S1817  W1897   2.420   .     S
S1818  W1894   2.420   .     S
S1818  W1897   2.420   .     S
W1819  S1820   2.420   .     S
W1819  S1821   2.420   .     S
S1820  W1897   2.420   .     S
S1820  W1900   2.420   .     S
S1821  W1897   2.420   .     S
S1821  W1900   2.420   .     S
W1822  S1823   2.420   .     S
W1822  S1824   2.420   .     S
S1823  W1900   2.420   .     S
S1823  W1903   2.420   .     S
S1824  W1900   2.420   .     S
S1824  W1903   2.420   .     S
W1825  S1826   2.420   .     S
W1825  S1827   2.420   .     S
S1826  W1903   2.420   .     S
S1826  W1906   2.420   .     S
S1827  W1903   2.420   .     S
S1827  W1906   2.420   .     S
W1828  S1829   2.420   .     S
W1828  S1830   2.420   .     S
S1829  W1906   2.420   .     S
S1829  W1909   2.420   .     S
S1830  W1906   2.420   .     S
S1830  W1909   2.420   .     S
W1831  S1832   2.420   .     S
W1831  S1833   2.420   .     S
S1832  W1909   2.420   .     S
S1832  W1912   2.420   .     S
S1833  W1909   2.420   .     S
S1833  W1912   2.420   .     S
W1834  S1835   2.420   .     S
W1834  S1836   2.420   .     S
S1835  W1912   2.420   .     S
S1835  W1915   2.420   .     S
S1836  W1912   2.420   .     S
S1836  W1915   2.420   .     S
W1837  S1838   2.420   .     S
W1837  S1839   2.420   .     S
S1838  W1915   2.420   .     S
S1838  W1918   2.420   .     S
S1839  W1915   2.420   .     S
S1839  W1918   2.420   .     S
W1840  S1841   2.420   .     S
W1840  S1842   2.420   .     S
S1841  W1918   2.420   .     S
S1841  W1921   2.420   .     S
S1842  W1918   2.420   .     S
S1842  W1921   2.420   .     S
W1843  S1844   2.420   .     S
W1843  S1845   2.420   .     S
S1844  W1921   2.420   .     S
S1844  W1924   2.420   .     S
S1845  W1921   2.420   .     S
S1845  W1924   2.420   .     S
W1846  S1847   2.420   .     S
W1846  S1848   2.420   .     S
S1847  W1924   2.420   .     S
S1847  W1927   2.420   .     S
S1848  W1924   2.420   .     S
S1848  W1927   2.420   .     S
W1849  S1850   2.420   .     S
W1849  S1851   2.420   .     S
S1850  W1927   2.420   .     S
S1850  W1930   2.420   .     S
S1851  W1927   2.420   .     S
S1851  W1930   2.420   .     S
W1852  S1853   2.420   .     S
W1852  S1854   2.420   .     S
S1853  W1930   2.420   .     S
S1853  W1933   2.420   .     S
S1854  W1930   2.420   .     S
S1854  W1933   2.420   .     S
W1855  S1856   2.420   .     S
W1855  S1857   2.420   .     S
S1856  W1933   2.420   .     S
S1856  W1936   2.420   .     S
S1857  W1933   2.420   .     S
S1857  W1936   2.420   .     S
W1858  S1859   2.420   .     S
W1858  S1860   2.420   .     S
S1859  W1936   2.420   .     S
S1859  W1939   2.420   .     S
S1860  W1936   2.420   .     S
S1860  W1939   2.420   .     S
W1861  S1862   2.420   .     S
W1861  S1863   2.420   .     S
S1862  W1939   2.420   .     S
S1862  W1942   2.420   .     S
S1863  W1939   2.420   .     S
S1863  W1942   2.420   .     S
W1864  S1865   2.420   .     S
W1864  S1866   2.420   .     S
S1865  W1942   2.420   .     S
S1865  W1945   2.420   .     S
S1866  W1942   2.420   .     S
S1866  W1945   2.420   .     S
W1867  S1868   2.420   .     S
W1867  S1869   2.420   .     S
S1868  W1945   2.420   .     S
S1868  W1948   2.420   .     S
S1869  W1945   2.420   .     S
S1869  W1948   2.420   .     S
W1870  S1871   2.420   .     S
W1870  S1872   2.420   .     S
S1871  W1948   2.420   .     S
S1872  W1948   2.420   .     S
W1873  S1874   2.420   .     S
W1873  S1875   2.420   .     S
S1874  W1951   2.420   .     S
S1874  W1954   2.420   .     S
S1875  W1951   2.420   .     S
S1875  W1954   2.420   .     S
W1876  S1877   2.420   .     S
W1876  S1878   2.420   .     S
S1877  W1954   2.420   .     S
S1877  W1957   2.420   .     S
S1878  W1954   2.420   .     S
S1878  W1957   2.420   .     S
W1879  S1880   2.420   .     S
W1879  S1881   2.420   .     S
S1880  W1957   2.420   .     S
S1881  W1957   2.420   .     S
W1882  W1960   2.280   .     S
S1883  W1966   2.316   .     S
S1883  W1885   2.324   .     S
W1885  W1966   2.305   .     S
W1888  S1889   2.420   .     S
W1888  S1890   2.420   .     S
S1889  W1969   2.420   .     S
S1890  W1969   2.420   .     S
W1891  S1892   2.420   .     S
W1891  S1893   2.420   .     S
S1892  W1969   2.420   .     S
S1892  W1972   2.420   .     S
S1893  W1969   2.420   .     S
S1893  W1972   2.420   .     S
W1894  S1895   2.420   .     S
W1894  S1896   2.420   .     S
S1895  W1972   2.420   .     S
S1895  W1975   2.420   .     S
S1896  W1972   2.420   .     S
S1896  W1975   2.420   .     S
W1897  S1898   2.420   .     S
W1897  S1899   2.420   .     S
S1898  W1975   2.420   .     S
S1898  W1978   2.420   .     S
S1899  W1975   2.420   .     S
S1899  W1978   2.420   .     S
W1900  S1901   2.420   .     S
W1900  S1902   2.420   .     S
S1901  W1978   2.420   .     S
S1901  W1981   2.420   .     S
S1902  W1978   2.420   .     S
S1902  W1981   2.420   .     S
W1903  S1904   2.420   .     S
W1903  S1905   2.420   .     S
S1904  W1981   2.420   .     S
S1904  W1984   2.420   .     S
S1905  W1981   2.420   .     S
S1905  W1984   2.420   .     S
W1906  S1907   2.420   .     S
W1906  S1908   2.420   .     S
S1907  W1984   2.420   .     S
S1907  W1987   2.420   .     S
S1908  W1984   2.420   .     S
S1908  W1987   2.420   .     S
W1909  S1910   2.420   .     S
W1909  S1911   2.420   .     S
S1910  W1987   2.420   .     S
S1910  W1990   2.420   .     S
S1911  W1987   2.420   .     S
S1911  W1990   2.420   .     S
W1912  S1913   2.420   .     S
W1912  S1914   2.420   .     S
S1913  W1990   2.420   .     S
S1913  W1993   2.420   .     S
S1914  W1990   2.420   .     S
S1914  W1993   2.420   .     S
W1915  S1916   2.420   .     S
W1915  S1917   2.420   .     S
S1916  W1993   2.420   .     S
S1916  W1996   2.420   .     S
S1917  W1993   2.420   .     S
S1917  W1996   2.420   .     S
W1918  S1919   2.420   .     S
W1918  S1920   2.420   .     S
S1919  W1996   2.420   .     S
S1919  W1999   2.420   .     S
S1920  W1996   2.420   .     S
S1920  W1999   2.420   .     S
W1921  S1922   2.420   .     S
W1921  S1923   2.420   .     S
S1922  W1999   2.420   .     S
S1922  W2002   2.420   .     S
S1923  W1999   2.420   .     S
S1923  W2002   2.420   .     S
W1924  S1925   2.420   .     S
W1924  S1926   2.420   .     S
S1925  W2002   2.420   .     S
S1925  W2005   2.420   .     S
S1926  W2002   2.420   .     S
S1926  W2005   2.420   .     S
W1927  S1928   2.420   .     S
W1927  S1929   2.420   .     S
S1928  W2005   2.420   .     S
S1928  W2008   2.420   .     S
S1929  W2005   2.420   .     S
S1929  W2008   2.420   .     S
W1930  S1931   2.420   .     S
W1930  S1932   2.420   .     S
S1931  W2008   2.420   .     S
S1931  W2011   2.420   .     S
S1932  W2008   2.420   .     S
S1932  W2011   2.420   .     S
W1933  S1934   2.420   .     S
W1933  S1935   2.420   .     S
S1934  W2011   2.420   .     S
S1935  W2011   2.420   .     S
W1936  W2014   2.714   .     S
W1939  W2020   2.740   .     S
S1940  S2018   2.225   .     D
S1941  S2019   2.371   .     D
W1942  S1943   2.420   .     S
W1942  S1944   2.420   .     S
S1943  W2023   2.420   .     S
S1944  W2023   2.420   .     S
W1945  S1946   2.420   .     S
W1945  S1947   2.420   .     S
S1946  W2023   2.420   .     S
S1946  W2026   2.420   .     S
S1947  W2023   2.420   .     S
S1947  W2026   2.420   .     S
W1948  S1949   2.420   .     S
W1948  S1950   2.420   .     S
S1949  W2026   2.420   .     S
S1950  W2026   2.420   .     S
W1951  S1952   2.420   .     S
W1951  S1953   2.420   .     S
S1952  W2032   2.516   .     S
S1953  W2032   2.516   .     S
W1954  S1955   2.420   .     S
W1954  S1956   2.420   .     S
S1955  W2032   2.543   .     S
S1956  W2032   2.543   .     S
W1957  S1958   2.420   .     S
W1957  S1959   2.420   .     S
S1958  W2035   2.464   .     S
S1959  W2035   2.464   .     S
S1961  W2038   2.389   .     S
S1962  W2038   2.389   .     S
S1964  W2041   2.319   .     S
S1965  W2041   2.319   .     S
S1967  W2044   2.300   .     S
S1968  W2044   2.254   .     S
W1969  S1970   2.420   .     S
W1969  S1971   2.420   .     S
S1970  W2047   2.195   .     S
S1971  W2047   2.195   .     S
W1972  S1973   2.420   .     S
W1972  S1974   2.420   .     S
S1973  W2050   2.143   .     S
S1974  W2050   2.143   .     S
W1975  S1976   2.420   .     S
W1975  S1977   2.420   .     S
S1976  W2053   2.096   .     S
S1977  W2053   2.096   .     S
W1978  S1979   2.420   .     S
W1978  S1980   2.420   .     S
S1979  W2056   2.057   .     S
S1980  W2056   2.057   .     S
W1981  S1982   2.420   .     S
W1981  S1983   2.420   .     S
S1982  W2059   2.026   .     S
S1983  W2059   2.026   .     S
W1984  S1985   2.420   .     S
W1984  S1986   2.420   .     S
S1985  W2062   2.002   .     S
S1986  W2062   2.002   .     S
W1987  S1988   2.420   .     S
W1987  S1989   2.420   .     S
S1988  W2065   1.986   .     S
S1989  W2065   1.986   .     S
W1990  S1991   2.420   .     S
W1990  S1992   2.420   .     S
S1991  W2068   1.979   .     S
S1992  W2068   1.979   .     S
W1993  S1994   2.420   .     S
W1993  S1995   2.420   .     S
S1994  W2071   1.980   .     S
S1995  W2071   1.980   .     S
W1996  S1997   2.420   .     S
W1996  S1998   2.420   .     S
S1997  W2074   1.989   .     S
S1998  W2074   1.989   .     S
W1999  S2000   2.420   .     S
W1999  S2001   2.420   .     S
S2000  W2077   2.007   .     S
S2001  W2077   2.007   .     S
W2002  S2003   2.420   .     S
W2002  S2004   2.420   .     S
S2003  W2080   2.032   .     S
S2004  W2080   2.032   .     S
W2005  S2006   2.420   .     S
W2005  S2007   2.420   .     S
S2006  W2083   2.066   .     S
S2007  W2083   2.066   .     S
W2008  S2009   2.420   .     S
W2008  S2010   2.420   .     S
S2009  W2086   2.107   .     S
S2010  W2086   2.107   .     S
W2011  S2012   2.420   .     S
W2011  S2013   2.420   .     S
S2012  W2089   2.154   .     S
S2013  W2089   2.154   .     S
S2015  W2092   2.209   .     S
S2016  W2092   2.209   .     S
S2021  W2098   2.335   .     S
S2022  W2098   2.335   .     S
W2023  S2024   2.420   .     S
W2023  S2025   2.420   .     S
S2024  W2101   2.406   .     S
S2025  W2101   2.406   .     S
W2026  S2027   2.420   .     S
W2026  S2028   2.420   .     S
W2029  Se2030  2.477   .     S
W2029  Se2031  2.477   .     S
Se2030 W2104   2.477   .     S
Se2030 W2107   2.477   .     S
Se2031 W2104   2.477   .     S
Se2031 W2107   2.477   .     S
W2032  Se2033  2.477   .     S
W2032  Se2034  2.477   .     S
Se2033 W2107   2.477   .     S
Se2033 W2110   2.477   .     S
Se2034 W2107   2.477   .     S
Se2034 W2110   2.477   .     S
W2035  Se2036  2.477   .     S
W2035  Se2037  2.477   .     S
Se2036 W2110   2.477   .     S
Se2036 W2113   2.477   .     S
Se2037 W2110   2.477   .     S
Se2037 W2113   2.477   .     S
W2038  Se2039  2.477   .     S
W2038  Se2040  2.477   .     S
Se2039 W2113   2.477   .     S
Se2039 W2116   2.477   .     S
Se2040 W2113   2.477   .     S
Se2040 W2116   2.477   .     S
W2041  Se2042  2.477   .     S
W2041  Se2043  2.477   .     S
Se2042 W2116   2.477   .     S
Se2042 W2119   2.477   .     S
Se2043 W2116   2.477   .     S
Se2043 W2119   2.477   .     S
W2044  Se2045  2.477   .     S
W2044  Se2046  2.477   .     S
Se2045 W2119   2.477   .     S
Se2045 W2122   2.477   .     S
Se2046 W2119   2.477   .     S
Se2046 W2122   2.477   .     S
W2047  Se2048  2.477   .     S
W2047  Se2049  2.477   .     S
Se2048 W2122   2.477   .     S
Se2048 W2125   2.477   .     S
Se2049 W2122   2.477   .     S
Se2049 W2125   2.477   .     S
W2050  Se2051  2.477   .     S
W2050  Se2052  2.477   .     S
Se2051 W2125   2.477   .     S
Se2051 W2128   2.477   .     S
Se2052 W2125   2.477   .     S
Se2052 W2128   2.477   .     S
W2053  Se2054  2.477   .     S
W2053  Se2055  2.477   .     S
Se2054 W2128   2.477   .     S
Se2054 W2131   2.477   .     S
Se2055 W2128   2.477   .     S
Se2055 W2131   2.477   .     S
W2056  Se2057  2.477   .     S
W2056  Se2058  2.477   .     S
Se2057 W2131   2.477   .     S
Se2057 W2134   2.477   .     S
Se2058 W2131   2.477   .     S
Se2058 W2134   2.477   .     S
W2059  Se2060  2.477   .     S
W2059  Se2061  2.477   .     S
Se2060 W2134   2.477   .     S
Se2060 W2137   2.477   .     S
Se2061 W2134   2.477   .     S
Se2061 W2137   2.477   .     S
W2062  Se2063  2.477   .     S
W2062  Se2064  2.477   .     S
Se2063 W2137   2.477   .     S
Se2063 W2140   2.477   .     S
Se2064 W2137   2.477   .     S
Se2064 W2140   2.477   .     S
W2065  Se2066  2.477   .     S
W2065  Se2067  2.477   .     S
Se2066 W2140   2.477   .     S
Se2066 W2143   2.477   .     S
Se2067 W2140   2.477   .     S
Se2067 W2143   2.477   .     S
W2068  Se2069  2.477   .     S
W2068  Se2070  2.477   .     S
Se2069 W2143   2.477   .     S
Se2069 W2146   2.477   .     S
Se2070 W2143   2.477   .     S
Se2070 W2146   2.477   .     S
W2071  Se2073  2.477   .     S
W2071  Se2072  2.477   .     S
Se2072 W2149   2.477   .     S
Se2072 W2146   2.477   .     S
Se2073 W2146   2.477   .     S
Se2073 W2149   2.477   .     S
W2074  Se2075  2.477   .     S
W2074  Se2076  2.477   .     S
Se2075 W2149   2.477   .     S
Se2075 W2152   2.477   .     S
Se2076 W2149   2.477   .     S
Se2076 W2152   2.477   .     S
W2077  Se2078  2.477   .     S
W2077  Se2079  2.477   .     S
Se2078 W2152   2.477   .     S
Se2078 W2155   2.477   .     S
Se2079 W2152   2.477   .     S
Se2079 W2155   2.477   .     S
W2080  Se2081  2.477   .     S
W2080  Se2082  2.477   .     S
Se2081 W2155   2.477   .     S
Se2081 W2158   2.477   .     S
Se2082 W2155   2.477   .     S
Se2082 W2158   2.477   .     S
W2083  Se2084  2.477   .     S
W2083  Se2085  2.477   .     S
Se2084 W2158   2.477   .     S
Se2084 W2161   2.477   .     S
Se2085 W2158   2.477   .     S
Se2085 W2161   2.477   .     S
W2086  Se2087  2.477   .     S
W2086  Se2088  2.477   .     S
Se2087 W2161   2.477   .     S
Se2087 W2164   2.477   .     S
Se2088 W2161   2.477   .     S
Se2088 W2164   2.477   .     S
W2089  Se2090  2.477   .     S
W2089  Se2091  2.477   .     S
Se2090 W2164   2.477   .     S
Se2090 W2167   2.477   .     S
Se2091 W2164   2.477   .     S
Se2091 W2167   2.477   .     S
W2092  Se2093  2.477   .     S
W2092  Se2094  2.477   .     S
Se2093 W2167   2.477   .     S
Se2093 W2170   2.477   .     S
Se2094 W2167   2.477   .     S
Se2094 W2170   2.477   .     S
W2095  Se2096  2.477   .     S
W2095  Se2097  2.477   .     S
Se2096 W2170   2.477   .     S
Se2096 W2173   2.477   .     S
Se2097 W2170   2.477   .     S
Se2097 W2173   2.477   .     S
W2098  Se2099  2.477   .     S
W2098  Se2100  2.477   .     S
Se2099 W2173   2.477   .     S
Se2099 W2176   2.477   .     S
Se2100 W2173   2.477   .     S
Se2100 W2176   2.477   .     S
W2101  Se2102  2.477   .     S
W2101  Se2103  2.477   .     S
Se2102 W2176   2.477   .     S
Se2103 W2176   2.477   .     S
W2104  Se2105  2.477   .     S
W2104  Se2106  2.477   .     S
Se2105 W2179   2.477   .     S
Se2105 W2182   2.477   .     S
Se2106 W2179   2.477   .     S
Se2106 W2182   2.477   .     S
W2107  Se2108  2.477   .     S
W2107  Se2109  2.477   .     S
Se2108 W2182   2.477   .     S
Se2108 W2185   2.477   .     S
Se2109 W2182   2.477   .     S
Se2109 W2185   2.477   .     S
W2110  Se2111  2.477   .     S
W2110  Se2112  2.477   .     S
Se2111 W2185   2.477   .     S
Se2111 W2188   2.477   .     S
Se2112 W2185   2.477   .     S
Se2112 W2188   2.477   .     S
W2113  Se2114  2.477   .     S
W2113  Se2115  2.477   .     S
Se2114 W2188   2.477   .     S
Se2114 W2191   2.477   .     S
Se2115 W2188   2.477   .     S
Se2115 W2191   2.477   .     S
W2116  Se2117  2.477   .     S
W2116  Se2118  2.477   .     S
Se2117 W2191   2.477   .     S
Se2117 W2194   2.477   .     S
Se2118 W2191   2.477   .     S
Se2118 W2194   2.477   .     S
W2119  Se2120  2.477   .     S
W2119  Se2121  2.477   .     S
Se2120 W2194   2.477   .     S
Se2120 W2197   2.477   .     S
Se2121 W2194   2.477   .     S
Se2121 W2197   2.477   .     S
W2122  Se2123  2.477   .     S
W2122  Se2124  2.477   .     S
Se2123 W2197   2.477   .     S
Se2123 W2200   2.477   .     S
Se2124 W2197   2.477   .     S
Se2124 W2200   2.477   .     S
W2125  Se2126  2.477   .     S
W2125  Se2127  2.477   .     S
Se2126 W2200   2.477   .     S
Se2126 W2203   2.477   .     S
Se2127 W2200   2.477   .     S
Se2127 W2203   2.477   .     S
W2128  Se2129  2.477   .     S
W2128  Se2130  2.477   .     S
Se2129 W2203   2.477   .     S
Se2129 W2206   2.477   .     S
Se2130 W2203   2.477   .     S
Se2130 W2206   2.477   .     S
W2131  Se2132  2.477   .     S
W2131  Se2133  2.477   .     S
Se2132 W2206   2.477   .     S
Se2132 W2209   2.477   .     S
Se2133 W2206   2.477   .     S
Se2133 W2209   2.477   .     S
W2134  Se2135  2.477   .     S
W2134  Se2136  2.477   .     S
Se2135 W2209   2.477   .     S
Se2135 W2212   2.477   .     S
Se2136 W2209   2.477   .     S
Se2136 W2212   2.477   .     S
W2137  Se2138  2.477   .     S
W2137  Se2139  2.477   .     S
Se2138 W2212   2.477   .     S
Se2138 W2215   2.477   .     S
Se2139 W2212   2.477   .     S
Se2139 W2215   2.477   .     S
W2140  Se2141  2.477   .     S
W2140  Se2142  2.477   .     S
Se2141 W2215   2.477   .     S
Se2141 W2218   2.477   .     S
Se2142 W2215   2.477   .     S
Se2142 W2218   2.477   .     S
W2143  Se2144  2.477   .     S
W2143  Se2145  2.477   .     S
Se2144 W2218   2.477   .     S
Se2144 W2221   2.477   .     S
Se2145 W2218   2.477   .     S
Se2145 W2221   2.477   .     S
W2146  Se2147  2.477   .     S
W2146  Se2148  2.477   .     S
Se2147 W2221   2.477   .     S
Se2147 W2224   2.477   .     S
Se2148 W2221   2.477   .     S
Se2148 W2224   2.477   .     S
W2149  Se2150  2.477   .     S
W2149  Se2151  2.477   .     S
Se2150 W2224   2.477   .     S
Se2150 W2227   2.477   .     S
Se2151 W2224   2.477   .     S
Se2151 W2227   2.477   .     S
W2152  Se2153  2.477   .     S
W2152  Se2154  2.477   .     S
Se2153 W2227   2.477   .     S
Se2153 W2230   2.477   .     S
Se2154 W2227   2.477   .     S
Se2154 W2230   2.477   .     S
W2155  Se2156  2.477   .     S
W2155  Se2157  2.477   .     S
Se2156 W2230   2.477   .     S
Se2156 W2233   2.477   .     S
Se2157 W2230   2.477   .     S
Se2157 W2233   2.477   .     S
W2158  Se2159  2.477   .     S
W2158  Se2160  2.477   .     S
Se2159 W2233   2.477   .     S
Se2159 W2236   2.477   .     S
Se2160 W2233   2.477   .     S
Se2160 W2236   2.477   .     S
W2161  Se2162  2.477   .     S
W2161  Se2163  2.477   .     S
Se2162 W2236   2.477   .     S
Se2162 W2239   2.477   .     S
Se2163 W2236   2.477   .     S
Se2163 W2239   2.477   .     S
W2164  Se2165  2.477   .     S
W2164  Se2166  2.477   .     S
Se2165 W2239   2.477   .     S
Se2165 W2242   2.477   .     S
Se2166 W2239   2.477   .     S
Se2166 W2242   2.477   .     S
W2167  Se2168  2.477   .     S
W2167  Se2169  2.477   .     S
Se2168 W2242   2.477   .     S
Se2168 W2245   2.477   .     S
Se2169 W2242   2.477   .     S
Se2169 W2245   2.477   .     S
W2170  Se2171  2.477   .     S
W2170  Se2172  2.477   .     S
Se2171 W2245   2.477   .     S
Se2171 W2248   2.477   .     S
Se2172 W2245   2.477   .     S
Se2172 W2248   2.477   .     S
W2173  Se2174  2.477   .     S
W2173  Se2175  2.477   .     S
Se2174 W2248   2.477   .     S
Se2174 W2251   2.477   .     S
Se2175 W2248   2.477   .     S
Se2175 W2251   2.477   .     S
W2176  Se2177  2.477   .     S
W2176  Se2178  2.477   .     S
Se2177 W2251   2.477   .     S
Se2178 W2251   2.477   .     S
W2179  Se2180  2.477   .     S
W2179  Se2181  2.477   .     S
Se2180 W2254   2.477   .     S
Se2180 W2257   2.477   .     S
Se2181 W2254   2.477   .     S
Se2181 W2257   2.477   .     S
W2182  Se2183  2.477   .     S
W2182  Se2184  2.477   .     S
Se2183 W2257   2.477   .     S
Se2183 W2260   2.477   .     S
Se2184 W2257   2.477   .     S
Se2184 W2260   2.477   .     S
W2185  Se2186  2.477   .     S
W2185  Se2187  2.477   .     S
Se2186 W2260   2.477   .     S
Se2186 W2263   2.477   .     S
Se2187 W2260   2.477   .     S
Se2187 W2263   2.477   .     S
W2188  Se2189  2.477   .     S
W2188  Se2190  2.477   .     S
Se2189 W2263   2.477   .     S
Se2189 W2266   2.477   .     S
Se2190 W2263   2.477   .     S
Se2190 W2266   2.477   .     S
W2191  Se2192  2.477   .     S
W2191  Se2193  2.477   .     S
Se2192 W2266   2.477   .     S
Se2192 W2269   2.477   .     S
Se2193 W2266   2.477   .     S
Se2193 W2269   2.477   .     S
W2194  Se2195  2.477   .     S
W2194  Se2196  2.477   .     S
Se2195 W2269   2.477   .     S
Se2195 W2272   2.477   .     S
Se2196 W2269   2.477   .     S
Se2196 W2272   2.477   .     S
W2197  Se2198  2.477   .     S
W2197  Se2199  2.477   .     S
Se2198 W2272   2.477   .     S
Se2198 W2275   2.477   .     S
Se2199 W2272   2.477   .     S
Se2199 W2275   2.477   .     S
W2200  Se2201  2.477   .     S
W2200  Se2202  2.477   .     S
Se2201 W2275   2.477   .     S
Se2201 W2278   2.477   .     S
Se2202 W2275   2.477   .     S
Se2202 W2278   2.477   .     S
W2203  Se2204  2.477   .     S
W2203  Se2205  2.477   .     S
Se2204 W2278   2.477   .     S
Se2204 W2281   2.477   .     S
Se2205 W2278   2.477   .     S
Se2205 W2281   2.477   .     S
W2206  Se2207  2.477   .     S
W2206  Se2208  2.477   .     S
Se2207 W2281   2.477   .     S
Se2207 W2284   2.477   .     S
Se2208 W2281   2.477   .     S
Se2208 W2284   2.477   .     S
W2209  Se2210  2.477   .     S
W2209  Se2211  2.477   .     S
Se2210 W2284   2.477   .     S
Se2210 W2287   2.477   .     S
Se2211 W2284   2.477   .     S
Se2211 W2287   2.477   .     S
W2212  Se2213  2.477   .     S
W2212  Se2214  2.477   .     S
Se2213 W2287   2.477   .     S
Se2213 W2290   2.477   .     S
Se2214 W2287   2.477   .     S
Se2214 W2290   2.477   .     S
W2215  Se2216  2.477   .     S
W2215  Se2217  2.477   .     S
Se2216 W2290   2.477   .     S
Se2216 W2293   2.477   .     S
Se2217 W2290   2.477   .     S
Se2217 W2293   2.477   .     S
W2218  Se2219  2.477   .     S
W2218  Se2220  2.477   .     S
Se2219 W2293   2.477   .     S
Se2219 W2296   2.477   .     S
Se2220 W2293   2.477   .     S
Se2220 W2296   2.477   .     S
W2221  Se2222  2.477   .     S
W2221  Se2223  2.477   .     S
Se2222 W2296   2.477   .     S
Se2222 W2299   2.477   .     S
Se2223 W2296   2.477   .     S
Se2223 W2299   2.477   .     S
W2224  Se2225  2.477   .     S
W2224  Se2226  2.477   .     S
Se2225 W2299   2.477   .     S
Se2225 W2302   2.477   .     S
Se2226 W2299   2.477   .     S
Se2226 W2302   2.477   .     S
W2227  Se2228  2.477   .     S
W2227  Se2229  2.477   .     S
Se2228 W2302   2.477   .     S
Se2228 W2305   2.477   .     S
Se2229 W2302   2.477   .     S
Se2229 W2305   2.477   .     S
W2230  Se2231  2.477   .     S
W2230  Se2232  2.477   .     S
Se2231 W2305   2.477   .     S
Se2231 W2308   2.477   .     S
Se2232 W2305   2.477   .     S
Se2232 W2308   2.477   .     S
W2233  Se2234  2.477   .     S
W2233  Se2235  2.477   .     S
Se2234 W2308   2.477   .     S
Se2234 W2311   2.477   .     S
Se2235 W2308   2.477   .     S
Se2235 W2311   2.477   .     S
W2236  Se2237  2.477   .     S
W2236  Se2238  2.477   .     S
Se2237 W2311   2.477   .     S
Se2237 W2314   2.477   .     S
Se2238 W2311   2.477   .     S
Se2238 W2314   2.477   .     S
W2239  Se2240  2.477   .     S
W2239  Se2241  2.477   .     S
Se2240 W2314   2.477   .     S
Se2240 W2317   2.477   .     S
Se2241 W2314   2.477   .     S
Se2241 W2317   2.477   .     S
W2242  Se2243  2.477   .     S
W2242  Se2244  2.477   .     S
Se2243 W2317   2.477   .     S
Se2243 W2320   2.477   .     S
Se2244 W2317   2.477   .     S
Se2244 W2320   2.477   .     S
W2245  Se2246  2.477   .     S
W2245  Se2247  2.477   .     S
Se2246 W2320   2.477   .     S
Se2246 W2323   2.477   .     S
Se2247 W2320   2.477   .     S
Se2247 W2323   2.477   .     S
W2248  Se2249  2.477   .     S
W2248  Se2250  2.477   .     S
Se2249 W2323   2.477   .     S
Se2249 W2326   2.477   .     S
Se2250 W2323   2.477   .     S
Se2250 W2326   2.477   .     S
W2251  Se2252  2.477   .     S
W2251  Se2253  2.477   .     S
Se2252 W2326   2.477   .     S
Se2253 W2326   2.477   .     S
W2254  Se2255  2.477   .     S
W2254  Se2256  2.477   .     S
Se2255 W2329   2.477   .     S
Se2255 W2332   2.477   .     S
Se2256 W2329   2.477   .     S
Se2256 W2332   2.477   .     S
W2257  Se2258  2.477   .     S
W2257  Se2259  2.477   .     S
Se2258 W2332   2.477   .     S
Se2258 W2335   2.477   .     S
Se2259 W2332   2.477   .     S
Se2259 W2335   2.477   .     S
W2260  Se2261  2.477   .     S
W2260  Se2262  2.477   .     S
Se2261 W2335   2.477   .     S
Se2261 W2338   2.477   .     S
Se2262 W2335   2.477   .     S
Se2262 W2338   2.477   .     S
W2263  Se2264  2.477   .     S
W2263  Se2265  2.477   .     S
Se2264 W2338   2.477   .     S
Se2264 W2341   2.477   .     S
Se2265 W2338   2.477   .     S
Se2265 W2341   2.477   .     S
W2266  Se2267  2.477   .     S
W2266  Se2268  2.477   .     S
Se2267 W2341   2.477   .     S
Se2267 W2344   2.477   .     S
Se2268 W2341   2.477   .     S
Se2268 W2344   2.477   .     S
W2269  Se2270  2.477   .     S
W2269  Se2271  2.477   .     S
Se2270 W2344   2.477   .     S
Se2270 W2347   2.477   .     S
Se2271 W2344   2.477   .     S
Se2271 W2347   2.477   .     S
W2272  Se2273  2.477   .     S
W2272  Se2274  2.477   .     S
Se2273 W2347   2.477   .     S
Se2273 W2350   2.477   .     S
Se2274 W2347   2.477   .     S
Se2274 W2350   2.477   .     S
W2275  Se2276  2.477   .     S
W2275  Se2277  2.477   .     S
Se2276 W2350   2.477   .     S
Se2276 W2353   2.477   .     S
Se2277 W2350   2.477   .     S
Se2277 W2353   2.477   .     S
W2278  Se2279  2.477   .     S
W2278  Se2280  2.477   .     S
Se2279 W2353   2.477   .     S
Se2279 W2356   2.477   .     S
Se2280 W2353   2.477   .     S
Se2280 W2356   2.477   .     S
W2281  Se2282  2.477   .     S
W2281  Se2283  2.477   .     S
Se2282 W2356   2.477   .     S
Se2282 W2359   2.477   .     S
Se2283 W2356   2.477   .     S
Se2283 W2359   2.477   .     S
W2284  Se2285  2.477   .     S
W2284  Se2286  2.477   .     S
Se2285 W2359   2.477   .     S
Se2285 W2362   2.477   .     S
Se2286 W2359   2.477   .     S
Se2286 W2362   2.477   .     S
W2287  Se2288  2.477   .     S
W2287  Se2289  2.477   .     S
Se2288 W2362   2.477   .     S
Se2288 W2365   2.477   .     S
Se2289 W2362   2.477   .     S
Se2289 W2365   2.477   .     S
W2290  Se2291  2.477   .     S
W2290  Se2292  2.477   .     S
Se2291 W2365   2.477   .     S
Se2291 W2368   2.477   .     S
Se2292 W2365   2.477   .     S
Se2292 W2368   2.477   .     S
W2293  Se2294  2.477   .     S
W2293  Se2295  2.477   .     S
Se2294 W2368   2.477   .     S
Se2294 W2371   2.477   .     S
Se2295 W2368   2.477   .     S
Se2295 W2371   2.477   .     S
W2296  Se2297  2.477   .     S
W2296  Se2298  2.477   .     S
Se2297 W2371   2.477   .     S
Se2297 W2374   2.477   .     S
Se2298 W2371   2.477   .     S
Se2298 W2374   2.477   .     S
W2299  Se2300  2.477   .     S
W2299  Se2301  2.477   .     S
Se2300 W2374   2.477   .     S
Se2300 W2377   2.477   .     S
Se2301 W2374   2.477   .     S
Se2301 W2377   2.477   .     S
W2302  Se2303  2.477   .     S
W2302  Se2304  2.477   .     S
Se2303 W2377   2.477   .     S
Se2303 W2380   2.477   .     S
Se2304 W2377   2.477   .     S
Se2304 W2380   2.477   .     S
W2305  Se2306  2.477   .     S
W2305  Se2307  2.477   .     S
Se2306 W2380   2.477   .     S
Se2306 W2383   2.477   .     S
Se2307 W2380   2.477   .     S
Se2307 W2383   2.477   .     S
W2308  Se2309  2.477   .     S
W2308  Se2310  2.477   .     S
Se2309 W2383   2.477   .     S
Se2309 W2386   2.477   .     S
Se2310 W2383   2.477   .     S
Se2310 W2386   2.477   .     S
W2311  Se2312  2.477   .     S
W2311  Se2313  2.477   .     S
Se2312 W2386   2.477   .     S
Se2312 W2389   2.477   .     S
Se2313 W2386   2.477   .     S
Se2313 W2389   2.477   .     S
W2314  Se2315  2.477   .     S
W2314  Se2316  2.477   .     S
Se2315 W2389   2.477   .     S
Se2315 W2392   2.477   .     S
Se2316 W2389   2.477   .     S
Se2316 W2392   2.477   .     S
W2317  Se2318  2.477   .     S
W2317  Se2319  2.477   .     S
Se2318 W2392   2.477   .     S
Se2318 W2395   2.477   .     S
Se2319 W2392   2.477   .     S
Se2319 W2395   2.477   .     S
W2320  Se2321  2.477   .     S
W2320  Se2322  2.477   .     S
Se2321 W2395   2.477   .     S
Se2321 W2398   2.477   .     S
Se2322 W2395   2.477   .     S
Se2322 W2398   2.477   .     S
W2323  Se2324  2.477   .     S
W2323  Se2325  2.477   .     S
Se2324 W2398   2.477   .     S
Se2324 W2401   2.477   .     S
Se2325 W2398   2.477   .     S
Se2325 W2401   2.477   .     S
W2326  Se2327  2.477   .     S
W2326  Se2328  2.477   .     S
Se2327 W2401   2.477   .     S
Se2328 W2401   2.477   .     S
W2329  Se2330  2.477   .     S
W2329  Se2331  2.477   .     S
Se2330 W2404   2.477   .     S
Se2330 W2407   2.477   .     S
Se2331 W2404   2.477   .     S
Se2331 W2407   2.477   .     S
W2332  Se2333  2.477   .     S
W2332  Se2334  2.477   .     S
Se2333 W2407   2.477   .     S
Se2333 W2410   2.477   .     S
Se2334 W2407   2.477   .     S
Se2334 W2410   2.477   .     S
W2335  Se2336  2.477   .     S
W2335  Se2337  2.477   .     S
Se2336 W2410   2.477   .     S
Se2336 W2413   2.477   .     S
Se2337 W2410   2.477   .     S
Se2337 W2413   2.477   .     S
W2338  Se2339  2.477   .     S
W2338  Se2340  2.477   .     S
Se2339 W2413   2.477   .     S
Se2339 W2416   2.477   .     S
Se2340 W2413   2.477   .     S
Se2340 W2416   2.477   .     S
W2341  Se2342  2.477   .     S
W2341  Se2343  2.477   .     S
Se2342 W2416   2.477   .     S
Se2342 W2419   2.477   .     S
Se2343 W2416   2.477   .     S
Se2343 W2419   2.477   .     S
W2344  Se2345  2.477   .     S
W2344  Se2346  2.477   .     S
Se2345 W2419   2.477   .     S
Se2345 W2422   2.477   .     S
Se2346 W2419   2.477   .     S
Se2346 W2422   2.477   .     S
W2347  Se2348  2.477   .     S
W2347  Se2349  2.477   .     S
Se2348 W2422   2.477   .     S
Se2348 W2425   2.477   .     S
Se2349 W2422   2.477   .     S
Se2349 W2425   2.477   .     S
W2350  Se2351  2.477   .     S
W2350  Se2352  2.477   .     S
Se2351 W2425   2.477   .     S
Se2351 W2428   2.477   .     S
Se2352 W2425   2.477   .     S
Se2352 W2428   2.477   .     S
W2353  Se2354  2.477   .     S
W2353  Se2355  2.477   .     S
Se2354 W2428   2.477   .     S
Se2354 W2431   2.477   .     S
Se2355 W2428   2.477   .     S
Se2355 W2431   2.477   .     S
W2356  Se2357  2.477   .     S
W2356  Se2358  2.477   .     S
Se2357 W2431   2.477   .     S
Se2357 W2434   2.477   .     S
Se2358 W2431   2.477   .     S
Se2358 W2434   2.477   .     S
W2359  Se2360  2.477   .     S
W2359  Se2361  2.477   .     S
Se2360 W2434   2.477   .     S
Se2360 W2437   2.477   .     S
Se2361 W2434   2.477   .     S
Se2361 W2437   2.477   .     S
W2362  Se2363  2.477   .     S
W2362  Se2364  2.477   .     S
Se2363 W2437   2.477   .     S
Se2363 W2440   2.477   .     S
Se2364 W2437   2.477   .     S
Se2364 W2440   2.477   .     S
W2365  Se2366  2.477   .     S
W2365  Se2367  2.477   .     S
Se2366 W2440   2.477   .     S
Se2366 W2443   2.477   .     S
Se2367 W2440   2.477   .     S
Se2367 W2443   2.477   .     S
W2368  Se2369  2.477   .     S
W2368  Se2370  2.477   .     S
Se2369 W2443   2.477   .     S
Se2369 W2446   2.477   .     S
Se2370 W2443   2.477   .     S
Se2370 W2446   2.477   .     S
W2371  Se2372  2.477   .     S
W2371  Se2373  2.477   .     S
Se2372 W2446   2.477   .     S
Se2372 W2449   2.477   .     S
Se2373 W2446   2.477   .     S
Se2373 W2449   2.477   .     S
W2374  Se2375  2.477   .     S
W2374  Se2376  2.477   .     S
Se2375 W2449   2.477   .     S
Se2375 W2452   2.477   .     S
Se2376 W2449   2.477   .     S
Se2376 W2452   2.477   .     S
W2377  Se2378  2.477   .     S
W2377  Se2379  2.477   .     S
Se2378 W2452   2.477   .     S
Se2378 W2455   2.477   .     S
Se2379 W2452   2.477   .     S
Se2379 W2455   2.477   .     S
W2380  Se2381  2.477   .     S
W2380  Se2382  2.477   .     S
Se2381 W2455   2.477   .     S
Se2381 W2458   2.477   .     S
Se2382 W2455   2.477   .     S
Se2382 W2458   2.477   .     S
W2383  Se2384  2.477   .     S
W2383  Se2385  2.477   .     S
Se2384 W2458   2.477   .     S
Se2384 W2461   2.477   .     S
Se2385 W2458   2.477   .     S
Se2385 W2461   2.477   .     S
W2386  Se2387  2.477   .     S
W2386  Se2388  2.477   .     S
Se2387 W2461   2.477   .     S
Se2387 W2464   2.477   .     S
Se2388 W2461   2.477   .     S
Se2388 W2464   2.477   .     S
W2389  Se2390  2.477   .     S
W2389  Se2391  2.477   .     S
Se2390 W2464   2.477   .     S
Se2390 W2467   2.477   .     S
Se2391 W2464   2.477   .     S
Se2391 W2467   2.477   .     S
W2392  Se2393  2.477   .     S
W2392  Se2394  2.477   .     S
Se2393 W2467   2.477   .     S
Se2393 W2470   2.477   .     S
Se2394 W2467   2.477   .     S
Se2394 W2470   2.477   .     S
W2395  Se2396  2.477   .     S
W2395  Se2397  2.477   .     S
Se2396 W2470   2.477   .     S
Se2396 W2473   2.477   .     S
Se2397 W2470   2.477   .     S
Se2397 W2473   2.477   .     S
W2398  Se2399  2.477   .     S
W2398  Se2400  2.477   .     S
Se2399 W2473   2.477   .     S
Se2399 W2476   2.477   .     S
Se2400 W2473   2.477   .     S
Se2400 W2476   2.477   .     S
W2401  Se2402  2.477   .     S
W2401  Se2403  2.477   .     S
Se2402 W2476   2.477   .     S
Se2403 W2476   2.477   .     S
W2404  Se2405  2.477   .     S
W2404  Se2406  2.477   .     S
Se2405 W2479   2.477   .     S
Se2405 W2482   2.477   .     S
Se2406 W2479   2.477   .     S
Se2406 W2482   2.477   .     S
W2407  Se2408  2.477   .     S
W2407  Se2409  2.477   .     S
Se2408 W2482   2.477   .     S
Se2408 W2485   2.477   .     S
Se2409 W2482   2.477   .     S
Se2409 W2485   2.477   .     S
W2410  Se2411  2.477   .     S
W2410  Se2412  2.477   .     S
Se2411 W2485   2.477   .     S
Se2411 W2488   2.477   .     S
Se2412 W2485   2.477   .     S
Se2412 W2488   2.477   .     S
W2413  Se2414  2.477   .     S
W2413  Se2415  2.477   .     S
Se2414 W2488   2.477   .     S
Se2414 W2491   2.477   .     S
Se2415 W2488   2.477   .     S
Se2415 W2491   2.477   .     S
W2416  Se2417  2.477   .     S
W2416  Se2418  2.477   .     S
Se2417 W2491   2.477   .     S
Se2417 W2494   2.477   .     S
Se2418 W2491   2.477   .     S
Se2418 W2494   2.477   .     S
W2419  Se2420  2.477   .     S
W2419  Se2421  2.477   .     S
Se2420 W2494   2.477   .     S
Se2420 W2497   2.477   .     S
Se2421 W2494   2.477   .     S
Se2421 W2497   2.477   .     S
W2422  Se2423  2.477   .     S
W2422  Se2424  2.477   .     S
Se2423 W2497   2.477   .     S
Se2423 W2500   2.477   .     S
Se2424 W2497   2.477   .     S
Se2424 W2500   2.477   .     S
W2425  Se2426  2.477   .     S
W2425  Se2427  2.477   .     S
Se2426 W2500   2.477   .     S
Se2426 W2503   2.477   .     S
Se2427 W2500   2.477   .     S
Se2427 W2503   2.477   .     S
W2428  Se2429  2.477   .     S
W2428  Se2430  2.477   .     S
Se2429 W2503   2.477   .     S
Se2429 W2506   2.477   .     S
Se2430 W2503   2.477   .     S
Se2430 W2506   2.477   .     S
W2431  Se2432  2.477   .     S
W2431  Se2433  2.477   .     S
Se2432 W2506   2.477   .     S
Se2432 W2509   2.477   .     S
Se2433 W2506   2.477   .     S
Se2433 W2509   2.477   .     S
W2434  Se2435  2.477   .     S
W2434  Se2436  2.477   .     S
Se2435 W2509   2.477   .     S
Se2435 W2512   2.477   .     S
Se2436 W2509   2.477   .     S
Se2436 W2512   2.477   .     S
W2437  Se2438  2.477   .     S
W2437  Se2439  2.477   .     S
Se2438 W2512   2.477   .     S
Se2438 W2515   2.477   .     S
Se2439 W2512   2.477   .     S
Se2439 W2515   2.477   .     S
W2440  Se2441  2.477   .     S
W2440  Se2442  2.477   .     S
Se2441 W2515   2.477   .     S
Se2441 W2518   2.477   .     S
Se2442 W2515   2.477   .     S
Se2442 W2518   2.477   .     S
W2443  Se2444  2.477   .     S
W2443  Se2445  2.477   .     S
Se2444 W2518   2.477   .     S
Se2444 W2521   2.477   .     S
Se2445 W2518   2.477   .     S
Se2445 W2521   2.477   .     S
W2446  Se2447  2.477   .     S
W2446  Se2448  2.477   .     S
Se2447 W2521   2.477   .     S
Se2447 W2524   2.477   .     S
Se2448 W2521   2.477   .     S
Se2448 W2524   2.477   .     S
W2449  Se2450  2.477   .     S
W2449  Se2451  2.477   .     S
Se2450 W2524   2.477   .     S
Se2450 W2527   2.477   .     S
Se2451 W2524   2.477   .     S
Se2451 W2527   2.477   .     S
W2452  Se2453  2.477   .     S
W2452  Se2454  2.477   .     S
Se2453 W2527   2.477   .     S
Se2453 W2530   2.477   .     S
Se2454 W2527   2.477   .     S
Se2454 W2530   2.477   .     S
W2455  Se2456  2.477   .     S
W2455  Se2457  2.477   .     S
Se2456 W2530   2.477   .     S
Se2456 W2533   2.477   .     S
Se2457 W2530   2.477   .     S
Se2457 W2533   2.477   .     S
W2458  Se2459  2.477   .     S
W2458  Se2460  2.477   .     S
Se2459 W2533   2.477   .     S
Se2459 W2536   2.477   .     S
Se2460 W2533   2.477   .     S
Se2460 W2536   2.477   .     S
W2461  Se2462  2.477   .     S
W2461  Se2463  2.477   .     S
Se2462 W2536   2.477   .     S
Se2462 W2539   2.477   .     S
Se2463 W2536   2.477   .     S
Se2463 W2539   2.477   .     S
W2464  Se2465  2.477   .     S
W2464  Se2466  2.477   .     S
Se2465 W2539   2.477   .     S
Se2465 W2542   2.477   .     S
Se2466 W2539   2.477   .     S
Se2466 W2542   2.477   .     S
W2467  Se2468  2.477   .     S
W2467  Se2469  2.477   .     S
Se2468 W2542   2.477   .     S
Se2468 W2545   2.477   .     S
Se2469 W2542   2.477   .     S
Se2469 W2545   2.477   .     S
W2470  Se2471  2.477   .     S
W2470  Se2472  2.477   .     S
Se2471 W2545   2.477   .     S
Se2471 W2548   2.477   .     S
Se2472 W2545   2.477   .     S
Se2472 W2548   2.477   .     S
W2473  Se2474  2.477   .     S
W2473  Se2475  2.477   .     S
Se2474 W2548   2.477   .     S
Se2474 W2551   2.477   .     S
Se2475 W2548   2.477   .     S
Se2475 W2551   2.477   .     S
W2476  Se2477  2.477   .     S
W2476  Se2478  2.477   .     S
Se2477 W2551   2.477   .     S
Se2478 W2551   2.477   .     S
W2479  Se2480  2.477   .     S
W2479  Se2481  2.477   .     S
Se2480 W2554   2.477   .     S
Se2480 W2557   2.477   .     S
Se2481 W2554   2.477   .     S
Se2481 W2557   2.477   .     S
W2482  Se2483  2.477   .     S
W2482  Se2484  2.477   .     S
Se2483 W2557   2.477   .     S
Se2483 W2560   2.477   .     S
Se2484 W2557   2.477   .     S
Se2484 W2560   2.477   .     S
W2485  Se2486  2.477   .     S
W2485  Se2487  2.477   .     S
Se2486 W2560   2.477   .     S
Se2486 W2563   2.477   .     S
Se2487 W2560   2.477   .     S
Se2487 W2563   2.477   .     S
W2488  Se2489  2.477   .     S
W2488  Se2490  2.477   .     S
Se2489 W2563   2.477   .     S
Se2489 W2566   2.477   .     S
Se2490 W2563   2.477   .     S
Se2490 W2566   2.477   .     S
W2491  Se2492  2.477   .     S
W2491  Se2493  2.477   .     S
Se2492 W2566   2.477   .     S
Se2492 W2569   2.477   .     S
Se2493 W2566   2.477   .     S
Se2493 W2569   2.477   .     S
W2494  Se2495  2.477   .     S
W2494  Se2496  2.477   .     S
Se2495 W2569   2.477   .     S
Se2495 W2572   2.477   .     S
Se2496 W2569   2.477   .     S
Se2496 W2572   2.477   .     S
W2497  Se2498  2.477   .     S
W2497  Se2499  2.477   .     S
Se2498 W2572   2.477   .     S
Se2498 W2575   2.477   .     S
Se2499 W2572   2.477   .     S
Se2499 W2575   2.477   .     S
W2500  Se2501  2.477   .     S
W2500  Se2502  2.477   .     S
Se2501 W2575   2.477   .     S
Se2501 W2578   2.477   .     S
Se2502 W2575   2.477   .     S
Se2502 W2578   2.477   .     S
W2503  Se2504  2.477   .     S
W2503  Se2505  2.477   .     S
Se2504 W2578   2.477   .     S
Se2504 W2581   2.477   .     S
Se2505 W2578   2.477   .     S
Se2505 W2581   2.477   .     S
W2506  Se2507  2.477   .     S
W2506  Se2508  2.477   .     S
Se2507 W2581   2.477   .     S
Se2507 W2584   2.477   .     S
Se2508 W2581   2.477   .     S
Se2508 W2584   2.477   .     S
W2509  Se2510  2.477   .     S
W2509  Se2511  2.477   .     S
Se2510 W2584   2.477   .     S
Se2510 W2587   2.477   .     S
Se2511 W2584   2.477   .     S
Se2511 W2587   2.477   .     S
W2512  Se2513  2.477   .     S
W2512  Se2514  2.477   .     S
Se2513 W2587   2.477   .     S
Se2513 W2590   2.477   .     S
Se2514 W2587   2.477   .     S
Se2514 W2590   2.477   .     S
W2515  Se2516  2.477   .     S
W2515  Se2517  2.477   .     S
Se2516 W2590   2.477   .     S
Se2516 W2593   2.477   .     S
Se2517 W2590   2.477   .     S
Se2517 W2593   2.477   .     S
W2518  Se2519  2.477   .     S
W2518  Se2520  2.477   .     S
Se2519 W2593   2.477   .     S
Se2519 W2596   2.477   .     S
Se2520 W2593   2.477   .     S
Se2520 W2596   2.477   .     S
W2521  Se2522  2.477   .     S
W2521  Se2523  2.477   .     S
Se2522 W2596   2.477   .     S
Se2522 W2599   2.477   .     S
Se2523 W2596   2.477   .     S
Se2523 W2599   2.477   .     S
W2524  Se2525  2.477   .     S
W2524  Se2526  2.477   .     S
Se2525 W2599   2.477   .     S
Se2525 W2602   2.477   .     S
Se2526 W2599   2.477   .     S
Se2526 W2602   2.477   .     S
W2527  Se2528  2.477   .     S
W2527  Se2529  2.477   .     S
Se2528 W2602   2.477   .     S
Se2528 W2605   2.477   .     S
Se2529 W2602   2.477   .     S
Se2529 W2605   2.477   .     S
W2530  Se2531  2.477   .     S
W2530  Se2532  2.477   .     S
Se2531 W2605   2.477   .     S
Se2531 W2608   2.477   .     S
Se2532 W2605   2.477   .     S
Se2532 W2608   2.477   .     S
W2533  Se2534  2.477   .     S
W2533  Se2535  2.477   .     S
Se2534 W2608   2.477   .     S
Se2534 W2611   2.477   .     S
Se2535 W2608   2.477   .     S
Se2535 W2611   2.477   .     S
W2536  Se2537  2.477   .     S
W2536  Se2538  2.477   .     S
Se2537 W2611   2.477   .     S
Se2537 W2614   2.477   .     S
Se2538 W2611   2.477   .     S
Se2538 W2614   2.477   .     S
W2539  Se2540  2.477   .     S
W2539  Se2541  2.477   .     S
Se2540 W2614   2.477   .     S
Se2540 W2617   2.477   .     S
Se2541 W2614   2.477   .     S
Se2541 W2617   2.477   .     S
W2542  Se2543  2.477   .     S
W2542  Se2544  2.477   .     S
Se2543 W2617   2.477   .     S
Se2543 W2620   2.477   .     S
Se2544 W2617   2.477   .     S
Se2544 W2620   2.477   .     S
W2545  Se2546  2.477   .     S
W2545  Se2547  2.477   .     S
Se2546 W2620   2.477   .     S
Se2546 W2623   2.477   .     S
Se2547 W2620   2.477   .     S
Se2547 W2623   2.477   .     S
W2548  Se2549  2.477   .     S
W2548  Se2550  2.477   .     S
Se2549 W2623   2.477   .     S
Se2549 W2626   2.477   .     S
Se2550 W2623   2.477   .     S
Se2550 W2626   2.477   .     S
W2551  Se2552  2.477   .     S
W2551  Se2553  2.477   .     S
Se2552 W2626   2.477   .     S
Se2553 W2626   2.477   .     S
W2554  Se2555  2.477   .     S
W2554  Se2556  2.477   .     S
Se2555 W2629   2.477   .     S
Se2555 W2632   2.477   .     S
Se2556 W2629   2.477   .     S
Se2556 W2632   2.477   .     S
W2557  Se2558  2.477   .     S
W2557  Se2559  2.477   .     S
Se2558 W2632   2.477   .     S
Se2558 W2635   2.477   .     S
Se2559 W2632   2.477   .     S
Se2559 W2635   2.477   .     S
W2560  Se2561  2.477   .     S
W2560  Se2562  2.477   .     S
Se2561 W2635   2.477   .     S
Se2561 W2638   2.477   .     S
Se2562 W2635   2.477   .     S
Se2562 W2638   2.477   .     S
W2563  Se2564  2.477   .     S
W2563  Se2565  2.477   .     S
Se2564 W2638   2.477   .     S
Se2564 W2641   2.477   .     S
Se2565 W2638   2.477   .     S
Se2565 W2641   2.477   .     S
W2566  Se2567  2.477   .     S
W2566  Se2568  2.477   .     S
Se2567 W2641   2.477   .     S
Se2567 W2644   2.477   .     S
Se2568 W2641   2.477   .     S
Se2568 W2644   2.477   .     S
W2569  Se2570  2.477   .     S
W2569  Se2571  2.477   .     S
Se2570 W2644   2.477   .     S
Se2570 W2647   2.477   .     S
Se2571 W2644   2.477   .     S
Se2571 W2647   2.477   .     S
W2572  Se2573  2.477   .     S
W2572  Se2574  2.477   .     S
Se2573 W2647   2.477   .     S
Se2573 W2650   2.477   .     S
Se2574 W2647   2.477   .     S
Se2574 W2650   2.477   .     S
W2575  Se2576  2.477   .     S
W2575  Se2577  2.477   .     S
Se2576 W2650   2.477   .     S
Se2576 W2653   2.477   .     S
Se2577 W2650   2.477   .     S
Se2577 W2653   2.477   .     S
W2578  Se2579  2.477   .     S
W2578  Se2580  2.477   .     S
Se2579 W2653   2.477   .     S
Se2579 W2656   2.477   .     S
Se2580 W2653   2.477   .     S
Se2580 W2656   2.477   .     S
W2581  Se2582  2.477   .     S
W2581  Se2583  2.477   .     S
Se2582 W2656   2.477   .     S
Se2582 W2659   2.477   .     S
Se2583 W2656   2.477   .     S
Se2583 W2659   2.477   .     S
W2584  Se2585  2.477   .     S
W2584  Se2586  2.477   .     S
Se2585 W2659   2.477   .     S
Se2585 W2662   2.477   .     S
Se2586 W2659   2.477   .     S
Se2586 W2662   2.477   .     S
W2587  Se2588  2.477   .     S
W2587  Se2589  2.477   .     S
Se2588 W2662   2.477   .     S
Se2588 W2665   2.477   .     S
Se2589 W2662   2.477   .     S
Se2589 W2665   2.477   .     S
W2590  Se2591  2.477   .     S
W2590  Se2592  2.477   .     S
Se2591 W2665   2.477   .     S
Se2591 W2668   2.477   .     S
Se2592 W2665   2.477   .     S
Se2592 W2668   2.477   .     S
W2593  Se2594  2.477   .     S
W2593  Se2595  2.477   .     S
Se2594 W2668   2.477   .     S
Se2594 W2671   2.477   .     S
Se2595 W2668   2.477   .     S
Se2595 W2671   2.477   .     S
W2596  Se2597  2.477   .     S
W2596  Se2598  2.477   .     S
Se2597 W2671   2.477   .     S
Se2597 W2674   2.477   .     S
Se2598 W2671   2.477   .     S
Se2598 W2674   2.477   .     S
W2599  Se2600  2.477   .     S
W2599  Se2601  2.477   .     S
Se2600 W2674   2.477   .     S
Se2600 W2677   2.477   .     S
Se2601 W2674   2.477   .     S
Se2601 W2677   2.477   .     S
W2602  Se2603  2.477   .     S
W2602  Se2604  2.477   .     S
Se2603 W2677   2.477   .     S
Se2603 W2680   2.477   .     S
Se2604 W2677   2.477   .     S
Se2604 W2680   2.477   .     S
W2605  Se2606  2.477   .     S
W2605  Se2607  2.477   .     S
Se2606 W2680   2.477   .     S
Se2606 W2683   2.477   .     S
Se2607 W2680   2.477   .     S
Se2607 W2683   2.477   .     S
W2608  Se2609  2.477   .     S
W2608  Se2610  2.477   .     S
Se2609 W2683   2.477   .     S
Se2609 W2686   2.477   .     S
Se2610 W2683   2.477   .     S
Se2610 W2686   2.477   .     S
W2611  Se2612  2.477   .     S
W2611  Se2613  2.477   .     S
Se2612 W2686   2.477   .     S
Se2612 W2689   2.477   .     S
Se2613 W2686   2.477   .     S
Se2613 W2689   2.477   .     S
W2614  Se2615  2.477   .     S
W2614  Se2616  2.477   .     S
Se2615 W2689   2.477   .     S
Se2615 W2692   2.477   .     S
Se2616 W2689   2.477   .     S
Se2616 W2692   2.477   .     S
W2617  Se2618  2.477   .     S
W2617  Se2619  2.477   .     S
Se2618 W2692   2.477   .     S
Se2618 W2695   2.477   .     S
Se2619 W2692   2.477   .     S
Se2619 W2695   2.477   .     S
W2620  Se2621  2.477   .     S
W2620  Se2622  2.477   .     S
Se2621 W2695   2.477   .     S
Se2621 W2698   2.477   .     S
Se2622 W2695   2.477   .     S
Se2622 W2698   2.477   .     S
W2623  Se2624  2.477   .     S
W2623  Se2625  2.477   .     S
Se2624 W2698   2.477   .     S
Se2624 W2701   2.477   .     S
Se2625 W2698   2.477   .     S
Se2625 W2701   2.477   .     S
W2626  Se2627  2.477   .     S
W2626  Se2628  2.477   .     S
Se2627 W2701   2.477   .     S
Se2628 W2701   2.477   .     S
W2629  Se2630  2.477   .     S
W2629  Se2631  2.477   .     S
Se2630 W2704   2.477   .     S
Se2630 W2707   2.477   .     S
Se2631 W2704   2.477   .     S
Se2631 W2707   2.477   .     S
W2632  Se2633  2.477   .     S
W2632  Se2634  2.477   .     S
Se2633 W2707   2.477   .     S
Se2633 W2710   2.477   .     S
Se2634 W2707   2.477   .     S
Se2634 W2710   2.477   .     S
W2635  Se2636  2.477   .     S
W2635  Se2637  2.477   .     S
Se2636 W2710   2.477   .     S
Se2636 W2713   2.477   .     S
Se2637 W2710   2.477   .     S
Se2637 W2713   2.477   .     S
W2638  Se2639  2.477   .     S
W2638  Se2640  2.477   .     S
Se2639 W2713   2.477   .     S
Se2639 W2716   2.477   .     S
Se2640 W2713   2.477   .     S
Se2640 W2716   2.477   .     S
W2641  Se2642  2.477   .     S
W2641  Se2643  2.477   .     S
Se2642 W2716   2.477   .     S
Se2642 W2719   2.477   .     S
Se2643 W2716   2.477   .     S
Se2643 W2719   2.477   .     S
W2644  Se2645  2.477   .     S
W2644  Se2646  2.477   .     S
Se2645 W2719   2.477   .     S
Se2645 W2722   2.477   .     S
Se2646 W2719   2.477   .     S
Se2646 W2722   2.477   .     S
W2647  Se2648  2.477   .     S
W2647  Se2649  2.477   .     S
Se2648 W2722   2.477   .     S
Se2648 W2725   2.477   .     S
Se2649 W2722   2.477   .     S
Se2649 W2725   2.477   .     S
W2650  Se2651  2.477   .     S
W2650  Se2652  2.477   .     S
Se2651 W2725   2.477   .     S
Se2651 W2728   2.477   .     S
Se2652 W2725   2.477   .     S
Se2652 W2728   2.477   .     S
W2653  Se2654  2.477   .     S
W2653  Se2655  2.477   .     S
Se2654 W2728   2.477   .     S
Se2654 W2731   2.477   .     S
Se2655 W2728   2.477   .     S
Se2655 W2731   2.477   .     S
W2656  Se2657  2.477   .     S
W2656  Se2658  2.477   .     S
Se2657 W2731   2.477   .     S
Se2657 W2734   2.477   .     S
Se2658 W2731   2.477   .     S
Se2658 W2734   2.477   .     S
W2659  Se2660  2.477   .     S
W2659  Se2661  2.477   .     S
Se2660 W2734   2.477   .     S
Se2660 W2737   2.477   .     S
Se2661 W2734   2.477   .     S
Se2661 W2737   2.477   .     S
W2662  Se2663  2.477   .     S
W2662  Se2664  2.477   .     S
Se2663 W2737   2.477   .     S
Se2663 W2740   2.477   .     S
Se2664 W2737   2.477   .     S
Se2664 W2740   2.477   .     S
W2665  Se2666  2.477   .     S
W2665  Se2667  2.477   .     S
Se2666 W2740   2.477   .     S
Se2666 W2743   2.477   .     S
Se2667 W2740   2.477   .     S
Se2667 W2743   2.477   .     S
W2668  Se2669  2.477   .     S
W2668  Se2670  2.477   .     S
Se2669 W2743   2.477   .     S
Se2669 W2746   2.477   .     S
Se2670 W2743   2.477   .     S
Se2670 W2746   2.477   .     S
W2671  Se2672  2.477   .     S
W2671  Se2673  2.477   .     S
Se2672 W2746   2.477   .     S
Se2672 W2749   2.477   .     S
Se2673 W2746   2.477   .     S
Se2673 W2749   2.477   .     S
W2674  Se2675  2.477   .     S
W2674  Se2676  2.477   .     S
Se2675 W2749   2.477   .     S
Se2675 W2752   2.477   .     S
Se2676 W2749   2.477   .     S
Se2676 W2752   2.477   .     S
W2677  Se2678  2.477   .     S
W2677  Se2679  2.477   .     S
Se2678 W2752   2.477   .     S
Se2678 W2755   2.477   .     S
Se2679 W2752   2.477   .     S
Se2679 W2755   2.477   .     S
W2680  Se2681  2.477   .     S
W2680  Se2682  2.477   .     S
Se2681 W2755   2.477   .     S
Se2681 W2758   2.477   .     S
Se2682 W2755   2.477   .     S
Se2682 W2758   2.477   .     S
W2683  Se2684  2.477   .     S
W2683  Se2685  2.477   .     S
Se2684 W2758   2.477   .     S
Se2684 W2761   2.477   .     S
Se2685 W2758   2.477   .     S
Se2685 W2761   2.477   .     S
W2686  Se2687  2.477   .     S
W2686  Se2688  2.477   .     S
Se2687 W2761   2.477   .     S
Se2687 W2764   2.477   .     S
Se2688 W2761   2.477   .     S
Se2688 W2764   2.477   .     S
W2689  Se2690  2.477   .     S
W2689  Se2691  2.477   .     S
Se2690 W2764   2.477   .     S
Se2690 W2767   2.477   .     S
Se2691 W2764   2.477   .     S
Se2691 W2767   2.477   .     S
W2692  Se2693  2.477   .     S
W2692  Se2694  2.477   .     S
Se2693 W2767   2.477   .     S
Se2693 W2770   2.477   .     S
Se2694 W2767   2.477   .     S
Se2694 W2770   2.477   .     S
W2695  Se2696  2.477   .     S
W2695  Se2697  2.477   .     S
Se2696 W2770   2.477   .     S
Se2696 W2773   2.477   .     S
Se2697 W2770   2.477   .     S
Se2697 W2773   2.477   .     S
W2698  Se2699  2.477   .     S
W2698  Se2700  2.477   .     S
Se2699 W2773   2.477   .     S
Se2699 W2776   2.477   .     S
Se2700 W2773   2.477   .     S
Se2700 W2776   2.477   .     S
W2701  Se2702  2.477   .     S
W2701  Se2703  2.477   .     S
Se2702 W2776   2.477   .     S
Se2703 W2776   2.477   .     S
W2704  Se2705  2.477   .     S
W2704  Se2706  2.477   .     S
Se2705 W2779   2.477   .     S
Se2705 W2782   2.477   .     S
Se2706 W2779   2.477   .     S
Se2706 W2782   2.477   .     S
W2707  Se2708  2.477   .     S
W2707  Se2709  2.477   .     S
Se2708 W2782   2.477   .     S
Se2708 W2785   2.477   .     S
Se2709 W2782   2.477   .     S
Se2709 W2785   2.477   .     S
W2710  Se2711  2.477   .     S
W2710  Se2712  2.477   .     S
Se2711 W2785   2.477   .     S
Se2711 W2788   2.477   .     S
Se2712 W2785   2.477   .     S
Se2712 W2788   2.477   .     S
W2713  Se2714  2.477   .     S
W2713  Se2715  2.477   .     S
Se2714 W2788   2.477   .     S
Se2714 W2791   2.477   .     S
Se2715 W2788   2.477   .     S
Se2715 W2791   2.477   .     S
W2716  Se2717  2.477   .     S
W2716  Se2718  2.477   .     S
Se2717 W2791   2.477   .     S
Se2717 W2794   2.477   .     S
Se2718 W2791   2.477   .     S
Se2718 W2794   2.477   .     S
W2719  Se2720  2.477   .     S
W2719  Se2721  2.477   .     S
Se2720 W2794   2.477   .     S
Se2720 W2797   2.477   .     S
Se2721 W2794   2.477   .     S
Se2721 W2797   2.477   .     S
W2722  Se2723  2.477   .     S
W2722  Se2724  2.477   .     S
Se2723 W2797   2.477   .     S
Se2723 W2800   2.477   .     S
Se2724 W2797   2.477   .     S
Se2724 W2800   2.477   .     S
W2725  Se2726  2.477   .     S
W2725  Se2727  2.477   .     S
Se2726 W2800   2.477   .     S
Se2726 W2803   2.477   .     S
Se2727 W2800   2.477   .     S
Se2727 W2803   2.477   .     S
W2728  Se2729  2.477   .     S
W2728  Se2730  2.477   .     S
Se2729 W2803   2.477   .     S
Se2729 W2806   2.477   .     S
Se2730 W2803   2.477   .     S
Se2730 W2806   2.477   .     S
W2731  Se2732  2.477   .     S
W2731  Se2733  2.477   .     S
Se2732 W2806   2.477   .     S
Se2732 W2809   2.477   .     S
Se2733 W2806   2.477   .     S
Se2733 W2809   2.477   .     S
W2734  Se2735  2.477   .     S
W2734  Se2736  2.477   .     S
Se2735 W2809   2.477   .     S
Se2735 W2812   2.477   .     S
Se2736 W2809   2.477   .     S
Se2736 W2812   2.477   .     S
W2737  Se2738  2.477   .     S
W2737  Se2739  2.477   .     S
Se2738 W2812   2.477   .     S
Se2738 W2815   2.477   .     S
Se2739 W2812   2.477   .     S
Se2739 W2815   2.477   .     S
W2740  Se2741  2.477   .     S
W2740  Se2742  2.477   .     S
Se2741 W2815   2.477   .     S
Se2741 W2818   2.477   .     S
Se2742 W2815   2.477   .     S
Se2742 W2818   2.477   .     S
W2743  Se2744  2.477   .     S
W2743  Se2745  2.477   .     S
Se2744 W2818   2.477   .     S
Se2744 W2821   2.477   .     S
Se2745 W2818   2.477   .     S
Se2745 W2821   2.477   .     S
W2746  Se2747  2.477   .     S
W2746  Se2748  2.477   .     S
Se2747 W2821   2.477   .     S
Se2747 W2824   2.477   .     S
Se2748 W2821   2.477   .     S
Se2748 W2824   2.477   .     S
W2749  Se2750  2.477   .     S
W2749  Se2751  2.477   .     S
Se2750 W2824   2.477   .     S
Se2750 W2827   2.477   .     S
Se2751 W2824   2.477   .     S
Se2751 W2827   2.477   .     S
W2752  Se2753  2.477   .     S
W2752  Se2754  2.477   .     S
Se2753 W2827   2.477   .     S
Se2753 W2830   2.477   .     S
Se2754 W2827   2.477   .     S
Se2754 W2830   2.477   .     S
W2755  Se2756  2.477   .     S
W2755  Se2757  2.477   .     S
Se2756 W2830   2.477   .     S
Se2756 W2833   2.477   .     S
Se2757 W2830   2.477   .     S
Se2757 W2833   2.477   .     S
W2758  Se2759  2.477   .     S
W2758  Se2760  2.477   .     S
Se2759 W2833   2.477   .     S
Se2759 W2836   2.477   .     S
Se2760 W2833   2.477   .     S
Se2760 W2836   2.477   .     S
W2761  Se2762  2.477   .     S
W2761  Se2763  2.477   .     S
Se2762 W2836   2.477   .     S
Se2762 W2839   2.477   .     S
Se2763 W2836   2.477   .     S
Se2763 W2839   2.477   .     S
W2764  Se2765  2.477   .     S
W2764  Se2766  2.477   .     S
Se2765 W2839   2.477   .     S
Se2765 W2842   2.477   .     S
Se2766 W2839   2.477   .     S
Se2766 W2842   2.477   .     S
W2767  Se2768  2.477   .     S
W2767  Se2769  2.477   .     S
Se2768 W2842   2.477   .     S
Se2768 W2845   2.477   .     S
Se2769 W2842   2.477   .     S
Se2769 W2845   2.477   .     S
W2770  Se2771  2.477   .     S
W2770  Se2772  2.477   .     S
Se2771 W2845   2.477   .     S
Se2771 W2848   2.477   .     S
Se2772 W2845   2.477   .     S
Se2772 W2848   2.477   .     S
W2773  Se2774  2.477   .     S
W2773  Se2775  2.477   .     S
Se2774 W2848   2.477   .     S
Se2774 W2851   2.477   .     S
Se2775 W2848   2.477   .     S
Se2775 W2851   2.477   .     S
W2776  Se2777  2.477   .     S
W2776  Se2778  2.477   .     S
Se2777 W2851   2.477   .     S
Se2778 W2851   2.477   .     S
W2779  Se2780  2.477   .     S
W2779  Se2781  2.477   .     S
Se2780 W2854   2.477   .     S
Se2780 W2857   2.477   .     S
Se2781 W2854   2.477   .     S
Se2781 W2857   2.477   .     S
W2782  Se2783  2.477   .     S
W2782  Se2784  2.477   .     S
Se2783 W2857   2.477   .     S
Se2783 W2860   2.477   .     S
Se2784 W2857   2.477   .     S
Se2784 W2860   2.477   .     S
W2785  Se2786  2.477   .     S
W2785  Se2787  2.477   .     S
Se2786 W2860   2.477   .     S
Se2786 W2863   2.477   .     S
Se2787 W2860   2.477   .     S
Se2787 W2863   2.477   .     S
W2788  Se2789  2.477   .     S
W2788  Se2790  2.477   .     S
Se2789 W2863   2.477   .     S
Se2789 W2866   2.477   .     S
Se2790 W2863   2.477   .     S
Se2790 W2866   2.477   .     S
W2791  Se2792  2.477   .     S
W2791  Se2793  2.477   .     S
Se2792 W2866   2.477   .     S
Se2792 W2869   2.477   .     S
Se2793 W2866   2.477   .     S
Se2793 W2869   2.477   .     S
W2794  Se2795  2.477   .     S
W2794  Se2796  2.477   .     S
Se2795 W2869   2.477   .     S
Se2795 W2872   2.477   .     S
Se2796 W2869   2.477   .     S
Se2796 W2872   2.477   .     S
W2797  Se2798  2.477   .     S
W2797  Se2799  2.477   .     S
Se2798 W2872   2.477   .     S
Se2798 W2875   2.477   .     S
Se2799 W2872   2.477   .     S
Se2799 W2875   2.477   .     S
W2800  Se2801  2.477   .     S
W2800  Se2802  2.477   .     S
Se2801 W2875   2.477   .     S
Se2801 W2878   2.477   .     S
Se2802 W2875   2.477   .     S
Se2802 W2878   2.477   .     S
W2803  Se2804  2.477   .     S
W2803  Se2805  2.477   .     S
Se2804 W2878   2.477   .     S
Se2804 W2881   2.477   .     S
Se2805 W2878   2.477   .     S
Se2805 W2881   2.477   .     S
W2806  Se2807  2.477   .     S
W2806  Se2808  2.477   .     S
Se2807 W2881   2.477   .     S
Se2807 W2884   2.477   .     S
Se2808 W2881   2.477   .     S
Se2808 W2884   2.477   .     S
W2809  Se2810  2.477   .     S
W2809  Se2811  2.477   .     S
Se2810 W2884   2.477   .     S
Se2810 W2887   2.477   .     S
Se2811 W2884   2.477   .     S
Se2811 W2887   2.477   .     S
W2812  Se2813  2.477   .     S
W2812  Se2814  2.477   .     S
Se2813 W2887   2.477   .     S
Se2813 W2890   2.477   .     S
Se2814 W2887   2.477   .     S
Se2814 W2890   2.477   .     S
W2815  Se2816  2.477   .     S
W2815  Se2817  2.477   .     S
Se2816 W2890   2.477   .     S
Se2816 W2893   2.477   .     S
Se2817 W2890   2.477   .     S
Se2817 W2893   2.477   .     S
W2818  Se2819  2.477   .     S
W2818  Se2820  2.477   .     S
Se2819 W2893   2.477   .     S
Se2819 W2896   2.477   .     S
Se2820 W2893   2.477   .     S
Se2820 W2896   2.477   .     S
W2821  Se2822  2.477   .     S
W2821  Se2823  2.477   .     S
Se2822 W2896   2.477   .     S
Se2822 W2899   2.477   .     S
Se2823 W2896   2.477   .     S
Se2823 W2899   2.477   .     S
W2824  Se2825  2.477   .     S
W2824  Se2826  2.477   .     S
Se2825 W2899   2.477   .     S
Se2825 W2902   2.477   .     S
Se2826 W2899   2.477   .     S
Se2826 W2902   2.477   .     S
W2827  Se2828  2.477   .     S
W2827  Se2829  2.477   .     S
Se2828 W2902   2.477   .     S
Se2828 W2905   2.477   .     S
Se2829 W2902   2.477   .     S
Se2829 W2905   2.477   .     S
W2830  Se2831  2.477   .     S
W2830  Se2832  2.477   .     S
Se2831 W2905   2.477   .     S
Se2831 W2908   2.477   .     S
Se2832 W2905   2.477   .     S
Se2832 W2908   2.477   .     S
W2833  Se2834  2.477   .     S
W2833  Se2835  2.477   .     S
Se2834 W2908   2.477   .     S
Se2834 W2911   2.477   .     S
Se2835 W2908   2.477   .     S
Se2835 W2911   2.477   .     S
W2836  Se2837  2.477   .     S
W2836  Se2838  2.477   .     S
Se2837 W2911   2.477   .     S
Se2837 W2914   2.477   .     S
Se2838 W2911   2.477   .     S
Se2838 W2914   2.477   .     S
W2839  Se2840  2.477   .     S
W2839  Se2841  2.477   .     S
Se2840 W2914   2.477   .     S
Se2840 W2917   2.477   .     S
Se2841 W2914   2.477   .     S
Se2841 W2917   2.477   .     S
W2842  Se2843  2.477   .     S
W2842  Se2844  2.477   .     S
Se2843 W2917   2.477   .     S
Se2843 W2920   2.477   .     S
Se2844 W2917   2.477   .     S
Se2844 W2920   2.477   .     S
W2845  Se2846  2.477   .     S
W2845  Se2847  2.477   .     S
Se2846 W2920   2.477   .     S
Se2846 W2923   2.477   .     S
Se2847 W2920   2.477   .     S
Se2847 W2923   2.477   .     S
W2848  Se2849  2.477   .     S
W2848  Se2850  2.477   .     S
Se2849 W2923   2.477   .     S
Se2849 W2926   2.477   .     S
Se2850 W2923   2.477   .     S
Se2850 W2926   2.477   .     S
W2851  Se2852  2.477   .     S
W2851  Se2853  2.477   .     S
Se2852 W2926   2.477   .     S
Se2853 W2926   2.477   .     S
W2854  Se2855  2.477   .     S
W2854  Se2856  2.477   .     S
Se2855 W2929   2.477   .     S
Se2855 W2932   2.477   .     S
Se2856 W2929   2.477   .     S
Se2856 W2932   2.477   .     S
W2857  Se2858  2.477   .     S
W2857  Se2859  2.477   .     S
Se2858 W2932   2.477   .     S
Se2858 W2935   2.477   .     S
Se2859 W2932   2.477   .     S
Se2859 W2935   2.477   .     S
W2860  Se2861  2.477   .     S
W2860  Se2862  2.477   .     S
Se2861 W2935   2.477   .     S
Se2861 W2938   2.477   .     S
Se2862 W2935   2.477   .     S
Se2862 W2938   2.477   .     S
W2863  Se2864  2.477   .     S
W2863  Se2865  2.477   .     S
Se2864 W2938   2.477   .     S
Se2864 W2941   2.477   .     S
Se2865 W2938   2.477   .     S
Se2865 W2941   2.477   .     S
W2866  Se2867  2.477   .     S
W2866  Se2868  2.477   .     S
Se2867 W2941   2.477   .     S
Se2867 W2944   2.477   .     S
Se2868 W2941   2.477   .     S
Se2868 W2944   2.477   .     S
W2869  Se2870  2.477   .     S
W2869  Se2871  2.477   .     S
Se2870 W2944   2.477   .     S
Se2870 W2947   2.477   .     S
Se2871 W2944   2.477   .     S
Se2871 W2947   2.477   .     S
W2872  Se2873  2.477   .     S
W2872  Se2874  2.477   .     S
Se2873 W2947   2.477   .     S
Se2873 W2950   2.477   .     S
Se2874 W2947   2.477   .     S
Se2874 W2950   2.477   .     S
W2875  Se2876  2.477   .     S
W2875  Se2877  2.477   .     S
Se2876 W2950   2.477   .     S
Se2876 W2953   2.477   .     S
Se2877 W2950   2.477   .     S
Se2877 W2953   2.477   .     S
W2878  Se2879  2.477   .     S
W2878  Se2880  2.477   .     S
Se2879 W2953   2.477   .     S
Se2879 W2956   2.477   .     S
Se2880 W2953   2.477   .     S
Se2880 W2956   2.477   .     S
W2881  Se2882  2.477   .     S
W2881  Se2883  2.477   .     S
Se2882 W2956   2.477   .     S
Se2882 W2959   2.477   .     S
Se2883 W2956   2.477   .     S
Se2883 W2959   2.477   .     S
W2884  Se2885  2.477   .     S
W2884  Se2886  2.477   .     S
Se2885 W2959   2.477   .     S
Se2885 W2962   2.477   .     S
Se2886 W2959   2.477   .     S
Se2886 W2962   2.477   .     S
W2887  Se2888  2.477   .     S
W2887  Se2889  2.477   .     S
Se2888 W2962   2.477   .     S
Se2888 W2965   2.477   .     S
Se2889 W2962   2.477   .     S
Se2889 W2965   2.477   .     S
W2890  Se2891  2.477   .     S
W2890  Se2892  2.477   .     S
Se2891 W2965   2.477   .     S
Se2891 W2968   2.477   .     S
Se2892 W2965   2.477   .     S
Se2892 W2968   2.477   .     S
W2893  Se2894  2.477   .     S
W2893  Se2895  2.477   .     S
Se2894 W2968   2.477   .     S
Se2894 W2971   2.477   .     S
Se2895 W2968   2.477   .     S
Se2895 W2971   2.477   .     S
W2896  Se2897  2.477   .     S
W2896  Se2898  2.477   .     S
Se2897 W2971   2.477   .     S
Se2897 W2974   2.477   .     S
Se2898 W2971   2.477   .     S
Se2898 W2974   2.477   .     S
W2899  Se2900  2.477   .     S
W2899  Se2901  2.477   .     S
Se2900 W2974   2.477   .     S
Se2900 W2977   2.477   .     S
Se2901 W2974   2.477   .     S
Se2901 W2977   2.477   .     S
W2902  Se2903  2.477   .     S
W2902  Se2904  2.477   .     S
Se2903 W2977   2.477   .     S
Se2903 W2980   2.477   .     S
Se2904 W2977   2.477   .     S
Se2904 W2980   2.477   .     S
W2905  Se2906  2.477   .     S
W2905  Se2907  2.477   .     S
Se2906 W2980   2.477   .     S
Se2906 W2983   2.477   .     S
Se2907 W2980   2.477   .     S
Se2907 W2983   2.477   .     S
W2908  Se2909  2.477   .     S
W2908  Se2910  2.477   .     S
Se2909 W2983   2.477   .     S
Se2909 W2986   2.477   .     S
Se2910 W2983   2.477   .     S
Se2910 W2986   2.477   .     S
W2911  Se2912  2.477   .     S
W2911  Se2913  2.477   .     S
Se2912 W2986   2.477   .     S
Se2912 W2989   2.477   .     S
Se2913 W2986   2.477   .     S
Se2913 W2989   2.477   .     S
W2914  Se2915  2.477   .     S
W2914  Se2916  2.477   .     S
Se2915 W2989   2.477   .     S
Se2915 W2992   2.477   .     S
Se2916 W2989   2.477   .     S
Se2916 W2992   2.477   .     S
W2917  Se2918  2.477   .     S
W2917  Se2919  2.477   .     S
Se2918 W2992   2.477   .     S
Se2918 W2995   2.477   .     S
Se2919 W2992   2.477   .     S
Se2919 W2995   2.477   .     S
W2920  Se2921  2.477   .     S
W2920  Se2922  2.477   .     S
Se2921 W2995   2.477   .     S
Se2921 W2998   2.477   .     S
Se2922 W2995   2.477   .     S
Se2922 W2998   2.477   .     S
W2923  Se2924  2.477   .     S
W2923  Se2925  2.477   .     S
Se2924 W2998   2.477   .     S
Se2924 W3001   2.477   .     S
Se2925 W2998   2.477   .     S
Se2925 W3001   2.477   .     S
W2926  Se2927  2.477   .     S
W2926  Se2928  2.477   .     S
Se2927 W3001   2.477   .     S
Se2928 W3001   2.477   .     S
W2929  Se2930  2.477   .     S
W2929  Se2931  2.477   .     S
Se2930 W3004   2.477   .     S
Se2930 W3007   2.477   .     S
Se2931 W3004   2.477   .     S
Se2931 W3007   2.477   .     S
W2932  Se2933  2.477   .     S
W2932  Se2934  2.477   .     S
Se2933 W3007   2.477   .     S
Se2933 W3010   2.477   .     S
Se2934 W3007   2.477   .     S
Se2934 W3010   2.477   .     S
W2935  Se2936  2.477   .     S
W2935  Se2937  2.477   .     S
Se2936 W3010   2.477   .     S
Se2936 W3013   2.477   .     S
Se2937 W3010   2.477   .     S
Se2937 W3013   2.477   .     S
W2938  Se2939  2.477   .     S
W2938  Se2940  2.477   .     S
Se2939 W3013   2.477   .     S
Se2939 W3016   2.477   .     S
Se2940 W3013   2.477   .     S
Se2940 W3016   2.477   .     S
W2941  Se2942  2.477   .     S
W2941  Se2943  2.477   .     S
Se2942 W3016   2.477   .     S
Se2942 W3019   2.477   .     S
Se2943 W3016   2.477   .     S
Se2943 W3019   2.477   .     S
W2944  Se2945  2.477   .     S
W2944  Se2946  2.477   .     S
Se2945 W3019   2.477   .     S
Se2945 W3022   2.477   .     S
Se2946 W3019   2.477   .     S
Se2946 W3022   2.477   .     S
W2947  Se2948  2.477   .     S
W2947  Se2949  2.477   .     S
Se2948 W3022   2.477   .     S
Se2948 W3025   2.477   .     S
Se2949 W3022   2.477   .     S
Se2949 W3025   2.477   .     S
W2950  Se2951  2.477   .     S
W2950  Se2952  2.477   .     S
Se2951 W3025   2.477   .     S
Se2951 W3028   2.477   .     S
Se2952 W3025   2.477   .     S
Se2952 W3028   2.477   .     S
W2953  Se2954  2.477   .     S
W2953  Se2955  2.477   .     S
Se2954 W3028   2.477   .     S
Se2954 W3031   2.477   .     S
Se2955 W3028   2.477   .     S
Se2955 W3031   2.477   .     S
W2956  Se2957  2.477   .     S
W2956  Se2958  2.477   .     S
Se2957 W3031   2.477   .     S
Se2957 W3034   2.477   .     S
Se2958 W3031   2.477   .     S
Se2958 W3034   2.477   .     S
W2959  Se2960  2.477   .     S
W2959  Se2961  2.477   .     S
Se2960 W3034   2.477   .     S
Se2960 W3037   2.477   .     S
Se2961 W3034   2.477   .     S
Se2961 W3037   2.477   .     S
W2962  Se2963  2.477   .     S
W2962  Se2964  2.477   .     S
Se2963 W3037   2.477   .     S
Se2963 W3040   2.477   .     S
Se2964 W3037   2.477   .     S
Se2964 W3040   2.477   .     S
W2965  Se2966  2.477   .     S
W2965  Se2967  2.477   .     S
Se2966 W3040   2.477   .     S
Se2966 W3043   2.477   .     S
Se2967 W3040   2.477   .     S
Se2967 W3043   2.477   .     S
W2968  Se2969  2.477   .     S
W2968  Se2970  2.477   .     S
Se2969 W3043   2.477   .     S
Se2969 W3046   2.477   .     S
Se2970 W3043   2.477   .     S
Se2970 W3046   2.477   .     S
W2971  Se2972  2.477   .     S
W2971  Se2973  2.477   .     S
Se2972 W3046   2.477   .     S
Se2972 W3049   2.477   .     S
Se2973 W3046   2.477   .     S
Se2973 W3049   2.477   .     S
W2974  Se2975  2.477   .     S
W2974  Se2976  2.477   .     S
Se2975 W3049   2.477   .     S
Se2975 W3052   2.477   .     S
Se2976 W3049   2.477   .     S
Se2976 W3052   2.477   .     S
W2977  Se2978  2.477   .     S
W2977  Se2979  2.477   .     S
Se2978 W3052   2.477   .     S
Se2978 W3055   2.477   .     S
Se2979 W3052   2.477   .     S
Se2979 W3055   2.477   .     S
W2980  Se2981  2.477   .     S
W2980  Se2982  2.477   .     S
Se2981 W3055   2.477   .     S
Se2981 W3058   2.477   .     S
Se2982 W3055   2.477   .     S
Se2982 W3058   2.477   .     S
W2983  Se2984  2.477   .     S
W2983  Se2985  2.477   .     S
Se2984 W3058   2.477   .     S
Se2984 W3061   2.477   .     S
Se2985 W3058   2.477   .     S
Se2985 W3061   2.477   .     S
W2986  Se2987  2.477   .     S
W2986  Se2988  2.477   .     S
Se2987 W3061   2.477   .     S
Se2987 W3064   2.477   .     S
Se2988 W3061   2.477   .     S
Se2988 W3064   2.477   .     S
W2989  Se2990  2.477   .     S
W2989  Se2991  2.477   .     S
Se2990 W3064   2.477   .     S
Se2990 W3067   2.477   .     S
Se2991 W3064   2.477   .     S
Se2991 W3067   2.477   .     S
W2992  Se2993  2.477   .     S
W2992  Se2994  2.477   .     S
Se2993 W3067   2.477   .     S
Se2993 W3070   2.477   .     S
Se2994 W3067   2.477   .     S
Se2994 W3070   2.477   .     S
W2995  Se2996  2.477   .     S
W2995  Se2997  2.477   .     S
Se2996 W3070   2.477   .     S
Se2996 W3073   2.477   .     S
Se2997 W3070   2.477   .     S
Se2997 W3073   2.477   .     S
W2998  Se2999  2.477   .     S
W2998  Se3000  2.477   .     S
Se2999 W3073   2.477   .     S
Se2999 W3076   2.477   .     S
Se3000 W3073   2.477   .     S
Se3000 W3076   2.477   .     S
W3001  Se3002  2.477   .     S
W3001  Se3003  2.477   .     S
Se3002 W3076   2.477   .     S
Se3003 W3076   2.477   .     S
W3004  Se3005  2.477   .     S
W3004  Se3006  2.477   .     S
Se3005 W3079   2.477   .     S
Se3005 W3082   2.477   .     S
Se3006 W3079   2.477   .     S
Se3006 W3082   2.477   .     S
W3007  Se3008  2.477   .     S
W3007  Se3009  2.477   .     S
Se3008 W3082   2.477   .     S
Se3008 W3085   2.477   .     S
Se3009 W3082   2.477   .     S
Se3009 W3085   2.477   .     S
W3010  Se3011  2.477   .     S
W3010  Se3012  2.477   .     S
Se3011 W3085   2.477   .     S
Se3011 W3088   2.477   .     S
Se3012 W3085   2.477   .     S
Se3012 W3088   2.477   .     S
W3013  Se3014  2.477   .     S
W3013  Se3015  2.477   .     S
Se3014 W3088   2.477   .     S
Se3014 W3091   2.477   .     S
Se3015 W3088   2.477   .     S
Se3015 W3091   2.477   .     S
W3016  Se3017  2.477   .     S
W3016  Se3018  2.477   .     S
Se3017 W3091   2.477   .     S
Se3017 W3094   2.477   .     S
Se3018 W3091   2.477   .     S
Se3018 W3094   2.477   .     S
W3019  Se3020  2.477   .     S
W3019  Se3021  2.477   .     S
Se3020 W3094   2.477   .     S
Se3020 W3097   2.477   .     S
Se3021 W3094   2.477   .     S
Se3021 W3097   2.477   .     S
W3022  Se3023  2.477   .     S
W3022  Se3024  2.477   .     S
Se3023 W3097   2.477   .     S
Se3023 W3100   2.477   .     S
Se3024 W3097   2.477   .     S
Se3024 W3100   2.477   .     S
W3025  Se3026  2.477   .     S
W3025  Se3027  2.477   .     S
Se3026 W3100   2.477   .     S
Se3026 W3103   2.477   .     S
Se3027 W3100   2.477   .     S
Se3027 W3103   2.477   .     S
W3028  Se3029  2.477   .     S
W3028  Se3030  2.477   .     S
Se3029 W3103   2.477   .     S
Se3029 W3106   2.477   .     S
Se3030 W3103   2.477   .     S
Se3030 W3106   2.477   .     S
W3031  Se3032  2.477   .     S
W3031  Se3033  2.477   .     S
Se3032 W3106   2.477   .     S
Se3032 W3109   2.477   .     S
Se3033 W3106   2.477   .     S
Se3033 W3109   2.477   .     S
W3034  Se3035  2.477   .     S
W3034  Se3036  2.477   .     S
Se3035 W3109   2.477   .     S
Se3035 W3112   2.477   .     S
Se3036 W3109   2.477   .     S
Se3036 W3112   2.477   .     S
W3037  Se3038  2.477   .     S
W3037  Se3039  2.477   .     S
Se3038 W3112   2.477   .     S
Se3038 W3115   2.477   .     S
Se3039 W3112   2.477   .     S
Se3039 W3115   2.477   .     S
W3040  Se3041  2.477   .     S
W3040  Se3042  2.477   .     S
Se3041 W3115   2.477   .     S
Se3041 W3118   2.477   .     S
Se3042 W3115   2.477   .     S
Se3042 W3118   2.477   .     S
W3043  Se3044  2.477   .     S
W3043  Se3045  2.477   .     S
Se3044 W3118   2.477   .     S
Se3044 W3121   2.477   .     S
Se3045 W3118   2.477   .     S
Se3045 W3121   2.477   .     S
W3046  Se3047  2.477   .     S
W3046  Se3048  2.477   .     S
Se3047 W3121   2.477   .     S
Se3047 W3124   2.477   .     S
Se3048 W3121   2.477   .     S
Se3048 W3124   2.477   .     S
W3049  Se3050  2.477   .     S
W3049  Se3051  2.477   .     S
Se3050 W3124   2.477   .     S
Se3050 W3127   2.477   .     S
Se3051 W3124   2.477   .     S
Se3051 W3127   2.477   .     S
W3052  Se3053  2.477   .     S
W3052  Se3054  2.477   .     S
Se3053 W3127   2.477   .     S
Se3053 W3130   2.477   .     S
Se3054 W3127   2.477   .     S
Se3054 W3130   2.477   .     S
W3055  Se3056  2.477   .     S
W3055  Se3057  2.477   .     S
Se3056 W3130   2.477   .     S
Se3056 W3133   2.477   .     S
Se3057 W3130   2.477   .     S
Se3057 W3133   2.477   .     S
W3058  Se3059  2.477   .     S
W3058  Se3060  2.477   .     S
Se3059 W3133   2.477   .     S
Se3059 W3136   2.477   .     S
Se3060 W3133   2.477   .     S
Se3060 W3136   2.477   .     S
W3061  Se3062  2.477   .     S
W3061  Se3063  2.477   .     S
Se3062 W3136   2.477   .     S
Se3062 W3139   2.477   .     S
Se3063 W3136   2.477   .     S
Se3063 W3139   2.477   .     S
W3064  Se3065  2.477   .     S
W3064  Se3066  2.477   .     S
Se3065 W3139   2.477   .     S
Se3065 W3142   2.477   .     S
Se3066 W3139   2.477   .     S
Se3066 W3142   2.477   .     S
W3067  Se3068  2.477   .     S
W3067  Se3069  2.477   .     S
Se3068 W3142   2.477   .     S
Se3068 W3145   2.477   .     S
Se3069 W3142   2.477   .     S
Se3069 W3145   2.477   .     S
W3070  Se3071  2.477   .     S
W3070  Se3072  2.477   .     S
Se3071 W3145   2.477   .     S
Se3071 W3148   2.477   .     S
Se3072 W3145   2.477   .     S
Se3072 W3148   2.477   .     S
W3073  Se3074  2.477   .     S
W3073  Se3075  2.477   .     S
Se3074 W3148   2.477   .     S
Se3074 W3151   2.477   .     S
Se3075 W3148   2.477   .     S
Se3075 W3151   2.477   .     S
W3076  Se3077  2.477   .     S
W3076  Se3078  2.477   .     S
Se3077 W3151   2.477   .     S
Se3078 W3151   2.477   .     S
W3079  Se3080  2.477   .     S
W3079  Se3081  2.477   .     S
Se3080 W3154   2.477   .     S
Se3080 W3157   2.477   .     S
Se3081 W3154   2.477   .     S
Se3081 W3157   2.477   .     S
W3082  Se3083  2.477   .     S
W3082  Se3084  2.477   .     S
Se3083 W3157   2.477   .     S
Se3083 W3160   2.477   .     S
Se3084 W3157   2.477   .     S
Se3084 W3160   2.477   .     S
W3085  Se3086  2.477   .     S
W3085  Se3087  2.477   .     S
Se3086 W3160   2.477   .     S
Se3086 W3163   2.477   .     S
Se3087 W3160   2.477   .     S
Se3087 W3163   2.477   .     S
W3088  Se3089  2.477   .     S
W3088  Se3090  2.477   .     S
Se3089 W3163   2.477   .     S
Se3089 W3166   2.477   .     S
Se3090 W3163   2.477   .     S
Se3090 W3166   2.477   .     S
W3091  Se3092  2.477   .     S
W3091  Se3093  2.477   .     S
Se3092 W3166   2.477   .     S
Se3092 W3169   2.477   .     S
Se3093 W3166   2.477   .     S
Se3093 W3169   2.477   .     S
W3094  Se3095  2.477   .     S
W3094  Se3096  2.477   .     S
Se3095 W3169   2.477   .     S
Se3095 W3172   2.477   .     S
Se3096 W3169   2.477   .     S
Se3096 W3172   2.477   .     S
W3097  Se3098  2.477   .     S
W3097  Se3099  2.477   .     S
Se3098 W3172   2.477   .     S
Se3098 W3175   2.477   .     S
Se3099 W3172   2.477   .     S
Se3099 W3175   2.477   .     S
W3100  Se3101  2.477   .     S
W3100  Se3102  2.477   .     S
Se3101 W3175   2.477   .     S
Se3101 W3178   2.477   .     S
Se3102 W3175   2.477   .     S
Se3102 W3178   2.477   .     S
W3103  Se3104  2.477   .     S
W3103  Se3105  2.477   .     S
Se3104 W3178   2.477   .     S
Se3104 W3181   2.477   .     S
Se3105 W3178   2.477   .     S
Se3105 W3181   2.477   .     S
W3106  Se3107  2.477   .     S
W3106  Se3108  2.477   .     S
Se3107 W3181   2.477   .     S
Se3107 W3184   2.477   .     S
Se3108 W3181   2.477   .     S
Se3108 W3184   2.477   .     S
W3109  Se3110  2.477   .     S
W3109  Se3111  2.477   .     S
Se3110 W3184   2.477   .     S
Se3110 W3187   2.477   .     S
Se3111 W3184   2.477   .     S
Se3111 W3187   2.477   .     S
W3112  Se3113  2.477   .     S
W3112  Se3114  2.477   .     S
Se3113 W3187   2.477   .     S
Se3113 W3190   2.477   .     S
Se3114 W3187   2.477   .     S
Se3114 W3190   2.477   .     S
W3115  Se3116  2.477   .     S
W3115  Se3117  2.477   .     S
Se3116 W3190   2.477   .     S
Se3116 W3193   2.477   .     S
Se3117 W3190   2.477   .     S
Se3117 W3193   2.477   .     S
W3118  Se3119  2.477   .     S
W3118  Se3120  2.477   .     S
Se3119 W3193   2.477   .     S
Se3119 W3196   2.477   .     S
Se3120 W3193   2.477   .     S
Se3120 W3196   2.477   .     S
W3121  Se3122  2.477   .     S
W3121  Se3123  2.477   .     S
Se3122 W3196   2.477   .     S
Se3122 W3199   2.477   .     S
Se3123 W3196   2.477   .     S
Se3123 W3199   2.477   .     S
W3124  Se3125  2.477   .     S
W3124  Se3126  2.477   .     S
Se3125 W3199   2.477   .     S
Se3125 W3202   2.477   .     S
Se3126 W3199   2.477   .     S
Se3126 W3202   2.477   .     S
W3127  Se3128  2.477   .     S
W3127  Se3129  2.477   .     S
Se3128 W3202   2.477   .     S
Se3128 W3205   2.477   .     S
Se3129 W3202   2.477   .     S
Se3129 W3205   2.477   .     S
W3130  Se3131  2.477   .     S
W3130  Se3132  2.477   .     S
Se3131 W3205   2.477   .     S
Se3131 W3208   2.477   .     S
Se3132 W3205   2.477   .     S
Se3132 W3208   2.477   .     S
W3133  Se3134  2.477   .     S
W3133  Se3135  2.477   .     S
Se3134 W3208   2.477   .     S
Se3134 W3211   2.477   .     S
Se3135 W3208   2.477   .     S
Se3135 W3211   2.477   .     S
W3136  Se3137  2.477   .     S
W3136  Se3138  2.477   .     S
Se3137 W3211   2.477   .     S
Se3137 W3214   2.477   .     S
Se3138 W3211   2.477   .     S
Se3138 W3214   2.477   .     S
W3139  Se3140  2.477   .     S
W3139  Se3141  2.477   .     S
Se3140 W3214   2.477   .     S
Se3140 W3217   2.477   .     S
Se3141 W3214   2.477   .     S
Se3141 W3217   2.477   .     S
W3142  Se3143  2.477   .     S
W3142  Se3144  2.477   .     S
Se3143 W3217   2.477   .     S
Se3143 W3220   2.477   .     S
Se3144 W3217   2.477   .     S
Se3144 W3220   2.477   .     S
W3145  Se3146  2.477   .     S
W3145  Se3147  2.477   .     S
Se3146 W3220   2.477   .     S
Se3146 W3223   2.477   .     S
Se3147 W3220   2.477   .     S
Se3147 W3223   2.477   .     S
W3148  Se3149  2.477   .     S
W3148  Se3150  2.477   .     S
Se3149 W3223   2.477   .     S
Se3149 W3226   2.477   .     S
Se3150 W3223   2.477   .     S
Se3150 W3226   2.477   .     S
W3151  Se3152  2.477   .     S
W3151  Se3153  2.477   .     S
Se3152 W3226   2.477   .     S
Se3153 W3226   2.477   .     S
W3154  Se3155  2.477   .     S
W3154  Se3156  2.477   .     S
Se3155 W3229   2.477   .     S
Se3155 W3232   2.477   .     S
Se3156 W3229   2.477   .     S
Se3156 W3232   2.477   .     S
W3157  Se3158  2.477   .     S
W3157  Se3159  2.477   .     S
Se3158 W3232   2.477   .     S
Se3158 W3235   2.477   .     S
Se3159 W3232   2.477   .     S
Se3159 W3235   2.477   .     S
W3160  Se3161  2.477   .     S
W3160  Se3162  2.477   .     S
Se3161 W3235   2.477   .     S
Se3161 W3238   2.477   .     S
Se3162 W3235   2.477   .     S
Se3162 W3238   2.477   .     S
W3163  Se3164  2.477   .     S
W3163  Se3165  2.477   .     S
Se3164 W3238   2.477   .     S
Se3164 W3241   2.477   .     S
Se3165 W3238   2.477   .     S
Se3165 W3241   2.477   .     S
W3166  Se3167  2.477   .     S
W3166  Se3168  2.477   .     S
Se3167 W3241   2.477   .     S
Se3167 W3244   2.477   .     S
Se3168 W3241   2.477   .     S
Se3168 W3244   2.477   .     S
W3169  Se3170  2.477   .     S
W3169  Se3171  2.477   .     S
Se3170 W3244   2.477   .     S
Se3170 W3247   2.477   .     S
Se3171 W3244   2.477   .     S
Se3171 W3247   2.477   .     S
W3172  Se3173  2.477   .     S
W3172  Se3174  2.477   .     S
Se3173 W3247   2.477   .     S
Se3173 W3250   2.477   .     S
Se3174 W3247   2.477   .     S
Se3174 W3250   2.477   .     S
W3175  Se3176  2.477   .     S
W3175  Se3177  2.477   .     S
Se3176 W3250   2.477   .     S
Se3176 W3253   2.477   .     S
Se3177 W3250   2.477   .     S
Se3177 W3253   2.477   .     S
W3178  Se3179  2.477   .     S
W3178  Se3180  2.477   .     S
Se3179 W3253   2.477   .     S
Se3179 W3256   2.477   .     S
Se3180 W3253   2.477   .     S
Se3180 W3256   2.477   .     S
W3181  Se3182  2.477   .     S
W3181  Se3183  2.477   .     S
Se3182 W3256   2.477   .     S
Se3182 W3259   2.477   .     S
Se3183 W3256   2.477   .     S
Se3183 W3259   2.477   .     S
W3184  Se3185  2.477   .     S
W3184  Se3186  2.477   .     S
Se3185 W3259   2.477   .     S
Se3185 W3262   2.477   .     S
Se3186 W3259   2.477   .     S
Se3186 W3262   2.477   .     S
W3187  Se3188  2.477   .     S
W3187  Se3189  2.477   .     S
Se3188 W3262   2.477   .     S
Se3188 W3265   2.477   .     S
Se3189 W3262   2.477   .     S
Se3189 W3265   2.477   .     S
W3190  Se3191  2.477   .     S
W3190  Se3192  2.477   .     S
Se3191 W3265   2.477   .     S
Se3191 W3268   2.477   .     S
Se3192 W3265   2.477   .     S
Se3192 W3268   2.477   .     S
W3193  Se3194  2.477   .     S
W3193  Se3195  2.477   .     S
Se3194 W3268   2.477   .     S
Se3194 W3271   2.477   .     S
Se3195 W3268   2.477   .     S
Se3195 W3271   2.477   .     S
W3196  Se3197  2.477   .     S
W3196  Se3198  2.477   .     S
Se3197 W3271   2.477   .     S
Se3197 W3274   2.477   .     S
Se3198 W3271   2.477   .     S
Se3198 W3274   2.477   .     S
W3199  Se3200  2.477   .     S
W3199  Se3201  2.477   .     S
Se3200 W3274   2.477   .     S
Se3200 W3277   2.477   .     S
Se3201 W3274   2.477   .     S
Se3201 W3277   2.477   .     S
W3202  Se3203  2.477   .     S
W3202  Se3204  2.477   .     S
Se3203 W3277   2.477   .     S
Se3203 W3280   2.477   .     S
Se3204 W3277   2.477   .     S
Se3204 W3280   2.477   .     S
W3205  Se3206  2.477   .     S
W3205  Se3207  2.477   .     S
Se3206 W3280   2.477   .     S
Se3206 W3283   2.477   .     S
Se3207 W3280   2.477   .     S
Se3207 W3283   2.477   .     S
W3208  Se3209  2.477   .     S
W3208  Se3210  2.477   .     S
Se3209 W3283   2.477   .     S
Se3209 W3286   2.477   .     S
Se3210 W3283   2.477   .     S
Se3210 W3286   2.477   .     S
W3211  Se3212  2.477   .     S
W3211  Se3213  2.477   .     S
Se3212 W3286   2.477   .     S
Se3212 W3289   2.477   .     S
Se3213 W3286   2.477   .     S
Se3213 W3289   2.477   .     S
W3214  Se3215  2.477   .     S
W3214  Se3216  2.477   .     S
Se3215 W3289   2.477   .     S
Se3215 W3292   2.477   .     S
Se3216 W3289   2.477   .     S
Se3216 W3292   2.477   .     S
W3217  Se3218  2.477   .     S
W3217  Se3219  2.477   .     S
Se3218 W3292   2.477   .     S
Se3218 W3295   2.477   .     S
Se3219 W3292   2.477   .     S
Se3219 W3295   2.477   .     S
W3220  Se3221  2.477   .     S
W3220  Se3222  2.477   .     S
Se3221 W3295   2.477   .     S
Se3221 W3298   2.477   .     S
Se3222 W3295   2.477   .     S
Se3222 W3298   2.477   .     S
W3223  Se3224  2.477   .     S
W3223  Se3225  2.477   .     S
Se3224 W3298   2.477   .     S
Se3224 W3301   2.477   .     S
Se3225 W3298   2.477   .     S
Se3225 W3301   2.477   .     S
W3226  Se3227  2.477   .     S
W3226  Se3228  2.477   .     S
Se3227 W3301   2.477   .     S
Se3228 W3301   2.477   .     S
W3229  Se3230  2.477   .     S
W3229  Se3231  2.477   .     S
Se3230 W3304   2.477   .     S
Se3230 W3307   2.477   .     S
Se3231 W3304   2.477   .     S
Se3231 W3307   2.477   .     S
W3232  Se3233  2.477   .     S
W3232  Se3234  2.477   .     S
Se3233 W3307   2.477   .     S
Se3233 W3310   2.477   .     S
Se3234 W3307   2.477   .     S
Se3234 W3310   2.477   .     S
W3235  Se3236  2.477   .     S
W3235  Se3237  2.477   .     S
Se3236 W3310   2.477   .     S
Se3236 W3313   2.477   .     S
Se3237 W3310   2.477   .     S
Se3237 W3313   2.477   .     S
W3238  Se3239  2.477   .     S
W3238  Se3240  2.477   .     S
Se3239 W3313   2.477   .     S
Se3239 W3316   2.477   .     S
Se3240 W3313   2.477   .     S
Se3240 W3316   2.477   .     S
W3241  Se3242  2.477   .     S
W3241  Se3243  2.477   .     S
Se3242 W3316   2.477   .     S
Se3242 W3319   2.477   .     S
Se3243 W3316   2.477   .     S
Se3243 W3319   2.477   .     S
W3244  Se3245  2.477   .     S
W3244  Se3246  2.477   .     S
Se3245 W3319   2.477   .     S
Se3245 W3322   2.477   .     S
Se3246 W3319   2.477   .     S
Se3246 W3322   2.477   .     S
W3247  Se3248  2.477   .     S
W3247  Se3249  2.477   .     S
Se3248 W3322   2.477   .     S
Se3248 W3325   2.477   .     S
Se3249 W3322   2.477   .     S
Se3249 W3325   2.477   .     S
W3250  Se3251  2.477   .     S
W3250  Se3252  2.477   .     S
Se3251 W3325   2.477   .     S
Se3251 W3328   2.477   .     S
Se3252 W3325   2.477   .     S
Se3252 W3328   2.477   .     S
W3253  Se3254  2.477   .     S
W3253  Se3255  2.477   .     S
Se3254 W3328   2.477   .     S
Se3254 W3331   2.477   .     S
Se3255 W3328   2.477   .     S
Se3255 W3331   2.477   .     S
W3256  Se3257  2.477   .     S
W3256  Se3258  2.477   .     S
Se3257 W3331   2.477   .     S
Se3257 W3334   2.477   .     S
Se3258 W3331   2.477   .     S
Se3258 W3334   2.477   .     S
W3259  Se3260  2.477   .     S
W3259  Se3261  2.477   .     S
Se3260 W3334   2.477   .     S
Se3260 W3337   2.477   .     S
Se3261 W3334   2.477   .     S
Se3261 W3337   2.477   .     S
W3262  Se3263  2.477   .     S
W3262  Se3264  2.477   .     S
Se3263 W3337   2.477   .     S
Se3263 W3340   2.477   .     S
Se3264 W3337   2.477   .     S
Se3264 W3340   2.477   .     S
W3265  Se3266  2.477   .     S
W3265  Se3267  2.477   .     S
Se3266 W3340   2.477   .     S
Se3266 W3343   2.477   .     S
Se3267 W3340   2.477   .     S
Se3267 W3343   2.477   .     S
W3268  Se3269  2.477   .     S
W3268  Se3270  2.477   .     S
Se3269 W3343   2.477   .     S
Se3269 W3346   2.477   .     S
Se3270 W3343   2.477   .     S
Se3270 W3346   2.477   .     S
W3271  Se3272  2.477   .     S
W3271  Se3273  2.477   .     S
Se3272 W3346   2.477   .     S
Se3272 W3349   2.477   .     S
Se3273 W3346   2.477   .     S
Se3273 W3349   2.477   .     S
W3274  Se3275  2.477   .     S
W3274  Se3276  2.477   .     S
Se3275 W3349   2.477   .     S
Se3275 W3352   2.477   .     S
Se3276 W3349   2.477   .     S
Se3276 W3352   2.477   .     S
W3277  Se3278  2.477   .     S
W3277  Se3279  2.477   .     S
Se3278 W3352   2.477   .     S
Se3278 W3355   2.477   .     S
Se3279 W3352   2.477   .     S
Se3279 W3355   2.477   .     S
W3280  Se3281  2.477   .     S
W3280  Se3282  2.477   .     S
Se3281 W3355   2.477   .     S
Se3281 W3358   2.477   .     S
Se3282 W3355   2.477   .     S
Se3282 W3358   2.477   .     S
W3283  Se3284  2.477   .     S
W3283  Se3285  2.477   .     S
Se3284 W3358   2.477   .     S
Se3284 W3361   2.477   .     S
Se3285 W3358   2.477   .     S
Se3285 W3361   2.477   .     S
W3286  Se3287  2.477   .     S
W3286  Se3288  2.477   .     S
Se3287 W3361   2.477   .     S
Se3287 W3364   2.477   .     S
Se3288 W3361   2.477   .     S
Se3288 W3364   2.477   .     S
W3289  Se3290  2.477   .     S
W3289  Se3291  2.477   .     S
Se3290 W3364   2.477   .     S
Se3290 W3367   2.477   .     S
Se3291 W3364   2.477   .     S
Se3291 W3367   2.477   .     S
W3292  Se3293  2.477   .     S
W3292  Se3294  2.477   .     S
Se3293 W3367   2.477   .     S
Se3293 W3370   2.477   .     S
Se3294 W3367   2.477   .     S
Se3294 W3370   2.477   .     S
W3295  Se3296  2.477   .     S
W3295  Se3297  2.477   .     S
Se3296 W3370   2.477   .     S
Se3296 W3373   2.477   .     S
Se3297 W3370   2.477   .     S
Se3297 W3373   2.477   .     S
W3298  Se3299  2.477   .     S
W3298  Se3300  2.477   .     S
Se3299 W3373   2.477   .     S
Se3299 W3376   2.477   .     S
Se3300 W3373   2.477   .     S
Se3300 W3376   2.477   .     S
W3301  Se3302  2.477   .     S
W3301  Se3303  2.477   .     S
Se3302 W3376   2.477   .     S
Se3303 W3376   2.477   .     S
W3304  Se3305  2.477   .     S
W3304  Se3306  2.477   .     S
Se3305 W3379   2.477   .     S
Se3305 W3382   2.477   .     S
Se3306 W3379   2.477   .     S
Se3306 W3382   2.477   .     S
W3307  Se3308  2.477   .     S
W3307  Se3309  2.477   .     S
Se3308 W3382   2.477   .     S
Se3308 W3385   2.477   .     S
Se3309 W3382   2.477   .     S
Se3309 W3385   2.477   .     S
W3310  Se3311  2.477   .     S
W3310  Se3312  2.477   .     S
Se3311 W3385   2.477   .     S
Se3311 W3388   2.477   .     S
Se3312 W3385   2.477   .     S
Se3312 W3388   2.477   .     S
W3313  Se3314  2.477   .     S
W3313  Se3315  2.477   .     S
Se3314 W3388   2.477   .     S
Se3314 W3391   2.477   .     S
Se3315 W3388   2.477   .     S
Se3315 W3391   2.477   .     S
W3316  Se3317  2.477   .     S
W3316  Se3318  2.477   .     S
Se3317 W3391   2.477   .     S
Se3317 W3394   2.477   .     S
Se3318 W3391   2.477   .     S
Se3318 W3394   2.477   .     S
W3319  Se3320  2.477   .     S
W3319  Se3321  2.477   .     S
Se3320 W3394   2.477   .     S
Se3320 W3397   2.477   .     S
Se3321 W3394   2.477   .     S
Se3321 W3397   2.477   .     S
W3322  Se3323  2.477   .     S
W3322  Se3324  2.477   .     S
Se3323 W3397   2.477   .     S
Se3323 W3400   2.477   .     S
Se3324 W3397   2.477   .     S
Se3324 W3400   2.477   .     S
W3325  Se3326  2.477   .     S
W3325  Se3327  2.477   .     S
Se3326 W3400   2.477   .     S
Se3326 W3403   2.477   .     S
Se3327 W3400   2.477   .     S
Se3327 W3403   2.477   .     S
W3328  Se3329  2.477   .     S
W3328  Se3330  2.477   .     S
Se3329 W3403   2.477   .     S
Se3329 W3406   2.477   .     S
Se3330 W3403   2.477   .     S
Se3330 W3406   2.477   .     S
W3331  Se3332  2.477   .     S
W3331  Se3333  2.477   .     S
Se3332 W3406   2.477   .     S
Se3332 W3409   2.477   .     S
Se3333 W3406   2.477   .     S
Se3333 W3409   2.477   .     S
W3334  Se3335  2.477   .     S
W3334  Se3336  2.477   .     S
Se3335 W3409   2.477   .     S
Se3335 W3412   2.477   .     S
Se3336 W3409   2.477   .     S
Se3336 W3412   2.477   .     S
W3337  Se3338  2.477   .     S
W3337  Se3339  2.477   .     S
Se3338 W3412   2.477   .     S
Se3338 W3415   2.477   .     S
Se3339 W3412   2.477   .     S
Se3339 W3415   2.477   .     S
W3340  Se3341  2.477   .     S
W3340  Se3342  2.477   .     S
Se3341 W3415   2.477   .     S
Se3341 W3418   2.477   .     S
Se3342 W3415   2.477   .     S
Se3342 W3418   2.477   .     S
W3343  Se3344  2.477   .     S
W3343  Se3345  2.477   .     S
Se3344 W3418   2.477   .     S
Se3344 W3421   2.477   .     S
Se3345 W3418   2.477   .     S
Se3345 W3421   2.477   .     S
W3346  Se3347  2.477   .     S
W3346  Se3348  2.477   .     S
Se3347 W3421   2.477   .     S
Se3347 W3424   2.477   .     S
Se3348 W3421   2.477   .     S
Se3348 W3424   2.477   .     S
W3349  Se3350  2.477   .     S
W3349  Se3351  2.477   .     S
Se3350 W3424   2.477   .     S
Se3350 W3427   2.477   .     S
Se3351 W3424   2.477   .     S
Se3351 W3427   2.477   .     S
W3352  Se3353  2.477   .     S
W3352  Se3354  2.477   .     S
Se3353 W3427   2.477   .     S
Se3353 W3430   2.477   .     S
Se3354 W3427   2.477   .     S
Se3354 W3430   2.477   .     S
W3355  Se3356  2.477   .     S
W3355  Se3357  2.477   .     S
Se3356 W3430   2.477   .     S
Se3356 W3433   2.477   .     S
Se3357 W3430   2.477   .     S
Se3357 W3433   2.477   .     S
W3358  Se3359  2.477   .     S
W3358  Se3360  2.477   .     S
Se3359 W3433   2.477   .     S
Se3359 W3436   2.477   .     S
Se3360 W3433   2.477   .     S
Se3360 W3436   2.477   .     S
W3361  Se3362  2.477   .     S
W3361  Se3363  2.477   .     S
Se3362 W3436   2.477   .     S
Se3362 W3439   2.477   .     S
Se3363 W3436   2.477   .     S
Se3363 W3439   2.477   .     S
W3364  Se3365  2.477   .     S
W3364  Se3366  2.477   .     S
Se3365 W3439   2.477   .     S
Se3365 W3442   2.477   .     S
Se3366 W3439   2.477   .     S
Se3366 W3442   2.477   .     S
W3367  Se3368  2.477   .     S
W3367  Se3369  2.477   .     S
Se3368 W3442   2.477   .     S
Se3368 W3445   2.477   .     S
Se3369 W3442   2.477   .     S
Se3369 W3445   2.477   .     S
W3370  Se3371  2.477   .     S
W3370  Se3372  2.477   .     S
Se3371 W3445   2.477   .     S
Se3371 W3448   2.477   .     S
Se3372 W3445   2.477   .     S
Se3372 W3448   2.477   .     S
W3373  Se3374  2.477   .     S
W3373  Se3375  2.477   .     S
Se3374 W3448   2.477   .     S
Se3374 W3451   2.477   .     S
Se3375 W3448   2.477   .     S
Se3375 W3451   2.477   .     S
W3376  Se3377  2.477   .     S
W3376  Se3378  2.477   .     S
Se3377 W3451   2.477   .     S
Se3378 W3451   2.477   .     S
W3379  Se3380  2.477   .     S
W3379  Se3381  2.477   .     S
Se3380 W3454   2.477   .     S
Se3380 W3457   2.477   .     S
Se3381 W3454   2.477   .     S
Se3381 W3457   2.477   .     S
W3382  Se3383  2.477   .     S
W3382  Se3384  2.477   .     S
Se3383 W3457   2.477   .     S
Se3383 W3460   2.477   .     S
Se3384 W3457   2.477   .     S
Se3384 W3460   2.477   .     S
W3385  Se3386  2.477   .     S
W3385  Se3387  2.477   .     S
Se3386 W3460   2.477   .     S
Se3386 W3463   2.477   .     S
Se3387 W3460   2.477   .     S
Se3387 W3463   2.477   .     S
W3388  Se3389  2.477   .     S
W3388  Se3390  2.477   .     S
Se3389 W3463   2.477   .     S
Se3389 W3466   2.477   .     S
Se3390 W3463   2.477   .     S
Se3390 W3466   2.477   .     S
W3391  Se3392  2.477   .     S
W3391  Se3393  2.477   .     S
Se3392 W3466   2.477   .     S
Se3392 W3469   2.477   .     S
Se3393 W3466   2.477   .     S
Se3393 W3469   2.477   .     S
W3394  Se3395  2.477   .     S
W3394  Se3396  2.477   .     S
Se3395 W3469   2.477   .     S
Se3395 W3472   2.477   .     S
Se3396 W3469   2.477   .     S
Se3396 W3472   2.477   .     S
W3397  Se3398  2.477   .     S
W3397  Se3399  2.477   .     S
Se3398 W3472   2.477   .     S
Se3398 W3475   2.477   .     S
Se3399 W3472   2.477   .     S
Se3399 W3475   2.477   .     S
W3400  Se3401  2.477   .     S
W3400  Se3402  2.477   .     S
Se3401 W3475   2.477   .     S
Se3401 W3478   2.477   .     S
Se3402 W3475   2.477   .     S
Se3402 W3478   2.477   .     S
W3403  Se3404  2.477   .     S
W3403  Se3405  2.477   .     S
Se3404 W3478   2.477   .     S
Se3404 W3481   2.477   .     S
Se3405 W3478   2.477   .     S
Se3405 W3481   2.477   .     S
W3406  Se3407  2.477   .     S
W3406  Se3408  2.477   .     S
Se3407 W3481   2.477   .     S
Se3407 W3484   2.477   .     S
Se3408 W3481   2.477   .     S
Se3408 W3484   2.477   .     S
W3409  Se3410  2.477   .     S
W3409  Se3411  2.477   .     S
Se3410 W3484   2.477   .     S
Se3410 W3487   2.477   .     S
Se3411 W3484   2.477   .     S
Se3411 W3487   2.477   .     S
W3412  Se3413  2.477   .     S
W3412  Se3414  2.477   .     S
Se3413 W3487   2.477   .     S
Se3413 W3490   2.477   .     S
Se3414 W3487   2.477   .     S
Se3414 W3490   2.477   .     S
W3415  Se3416  2.477   .     S
W3415  Se3417  2.477   .     S
Se3416 W3490   2.477   .     S
Se3416 W3493   2.477   .     S
Se3417 W3490   2.477   .     S
Se3417 W3493   2.477   .     S
W3418  Se3419  2.477   .     S
W3418  Se3420  2.477   .     S
Se3419 W3493   2.477   .     S
Se3419 W3496   2.477   .     S
Se3420 W3493   2.477   .     S
Se3420 W3496   2.477   .     S
W3421  Se3422  2.477   .     S
W3421  Se3423  2.477   .     S
Se3422 W3496   2.477   .     S
Se3422 W3499   2.477   .     S
Se3423 W3496   2.477   .     S
Se3423 W3499   2.477   .     S
W3424  Se3425  2.477   .     S
W3424  Se3426  2.477   .     S
Se3425 W3499   2.477   .     S
Se3425 W3502   2.477   .     S
Se3426 W3499   2.477   .     S
Se3426 W3502   2.477   .     S
W3427  Se3428  2.477   .     S
W3427  Se3429  2.477   .     S
Se3428 W3502   2.477   .     S
Se3428 W3505   2.477   .     S
Se3429 W3502   2.477   .     S
Se3429 W3505   2.477   .     S
W3430  Se3431  2.477   .     S
W3430  Se3432  2.477   .     S
Se3431 W3505   2.477   .     S
Se3431 W3508   2.477   .     S
Se3432 W3505   2.477   .     S
Se3432 W3508   2.477   .     S
W3433  Se3434  2.477   .     S
W3433  Se3435  2.477   .     S
Se3434 W3508   2.477   .     S
Se3434 W3511   2.477   .     S
Se3435 W3508   2.477   .     S
Se3435 W3511   2.477   .     S
W3436  Se3437  2.477   .     S
W3436  Se3438  2.477   .     S
Se3437 W3511   2.477   .     S
Se3437 W3514   2.477   .     S
Se3438 W3511   2.477   .     S
Se3438 W3514   2.477   .     S
W3439  Se3440  2.477   .     S
W3439  Se3441  2.477   .     S
Se3440 W3514   2.477   .     S
Se3440 W3517   2.477   .     S
Se3441 W3514   2.477   .     S
Se3441 W3517   2.477   .     S
W3442  Se3443  2.477   .     S
W3442  Se3444  2.477   .     S
Se3443 W3517   2.477   .     S
Se3443 W3520   2.477   .     S
Se3444 W3517   2.477   .     S
Se3444 W3520   2.477   .     S
W3445  Se3446  2.477   .     S
W3445  Se3447  2.477   .     S
Se3446 W3520   2.477   .     S
Se3446 W3523   2.477   .     S
Se3447 W3520   2.477   .     S
Se3447 W3523   2.477   .     S
W3448  Se3449  2.477   .     S
W3448  Se3450  2.477   .     S
Se3449 W3523   2.477   .     S
Se3449 W3526   2.477   .     S
Se3450 W3523   2.477   .     S
Se3450 W3526   2.477   .     S
W3451  Se3452  2.477   .     S
W3451  Se3453  2.477   .     S
Se3452 W3526   2.477   .     S
Se3453 W3526   2.477   .     S
W3454  Se3455  2.477   .     S
W3454  Se3456  2.477   .     S
Se3455 W3529   2.477   .     S
Se3455 W3532   2.477   .     S
Se3456 W3529   2.477   .     S
Se3456 W3532   2.477   .     S
W3457  Se3458  2.477   .     S
W3457  Se3459  2.477   .     S
Se3458 W3532   2.477   .     S
Se3458 W3535   2.477   .     S
Se3459 W3532   2.477   .     S
Se3459 W3535   2.477   .     S
W3460  Se3461  2.477   .     S
W3460  Se3462  2.477   .     S
Se3461 W3535   2.477   .     S
Se3461 W3538   2.477   .     S
Se3462 W3535   2.477   .     S
Se3462 W3538   2.477   .     S
W3463  Se3464  2.477   .     S
W3463  Se3465  2.477   .     S
Se3464 W3538   2.477   .     S
Se3464 W3541   2.477   .     S
Se3465 W3538   2.477   .     S
Se3465 W3541   2.477   .     S
W3466  Se3467  2.477   .     S
W3466  Se3468  2.477   .     S
Se3467 W3541   2.477   .     S
Se3467 W3544   2.477   .     S
Se3468 W3541   2.477   .     S
Se3468 W3544   2.477   .     S
W3469  Se3470  2.477   .     S
W3469  Se3471  2.477   .     S
Se3470 W3544   2.477   .     S
Se3470 W3547   2.477   .     S
Se3471 W3544   2.477   .     S
Se3471 W3547   2.477   .     S
W3472  Se3473  2.477   .     S
W3472  Se3474  2.477   .     S
Se3473 W3547   2.477   .     S
Se3473 W3550   2.477   .     S
Se3474 W3547   2.477   .     S
Se3474 W3550   2.477   .     S
W3475  Se3476  2.477   .     S
W3475  Se3477  2.477   .     S
Se3476 W3550   2.477   .     S
Se3476 W3553   2.477   .     S
Se3477 W3550   2.477   .     S
Se3477 W3553   2.477   .     S
W3478  Se3479  2.477   .     S
W3478  Se3480  2.477   .     S
Se3479 W3553   2.477   .     S
Se3479 W3556   2.477   .     S
Se3480 W3553   2.477   .     S
Se3480 W3556   2.477   .     S
W3481  Se3482  2.477   .     S
W3481  Se3483  2.477   .     S
Se3482 W3556   2.477   .     S
Se3482 W3559   2.477   .     S
Se3483 W3556   2.477   .     S
Se3483 W3559   2.477   .     S
W3484  Se3485  2.477   .     S
W3484  Se3486  2.477   .     S
Se3485 W3559   2.477   .     S
Se3485 W3562   2.477   .     S
Se3486 W3559   2.477   .     S
Se3486 W3562   2.477   .     S
W3487  Se3488  2.477   .     S
W3487  Se3489  2.477   .     S
Se3488 W3562   2.477   .     S
Se3488 W3565   2.477   .     S
Se3489 W3562   2.477   .     S
Se3489 W3565   2.477   .     S
W3490  Se3491  2.477   .     S
W3490  Se3492  2.477   .     S
Se3491 W3565   2.477   .     S
Se3491 W3568   2.477   .     S
Se3492 W3565   2.477   .     S
Se3492 W3568   2.477   .     S
W3493  Se3494  2.477   .     S
W3493  Se3495  2.477   .     S
Se3494 W3568   2.477   .     S
Se3494 W3571   2.477   .     S
Se3495 W3568   2.477   .     S
Se3495 W3571   2.477   .     S
W3496  Se3497  2.477   .     S
W3496  Se3498  2.477   .     S
Se3497 W3571   2.477   .     S
Se3497 W3574   2.477   .     S
Se3498 W3571   2.477   .     S
Se3498 W3574   2.477   .     S
W3499  Se3500  2.477   .     S
W3499  Se3501  2.477   .     S
Se3500 W3574   2.477   .     S
Se3500 W3577   2.477   .     S
Se3501 W3574   2.477   .     S
Se3501 W3577   2.477   .     S
W3502  Se3503  2.477   .     S
W3502  Se3504  2.477   .     S
Se3503 W3577   2.477   .     S
Se3503 W3580   2.477   .     S
Se3504 W3577   2.477   .     S
Se3504 W3580   2.477   .     S
W3505  Se3506  2.477   .     S
W3505  Se3507  2.477   .     S
Se3506 W3580   2.477   .     S
Se3506 W3583   2.477   .     S
Se3507 W3580   2.477   .     S
Se3507 W3583   2.477   .     S
W3508  Se3509  2.477   .     S
W3508  Se3510  2.477   .     S
Se3509 W3583   2.477   .     S
Se3509 W3586   2.477   .     S
Se3510 W3583   2.477   .     S
Se3510 W3586   2.477   .     S
W3511  Se3512  2.477   .     S
W3511  Se3513  2.477   .     S
Se3512 W3586   2.477   .     S
Se3512 W3589   2.477   .     S
Se3513 W3586   2.477   .     S
Se3513 W3589   2.477   .     S
W3514  Se3515  2.477   .     S
W3514  Se3516  2.477   .     S
Se3515 W3589   2.477   .     S
Se3515 W3592   2.477   .     S
Se3516 W3589   2.477   .     S
Se3516 W3592   2.477   .     S
W3517  Se3518  2.477   .     S
W3517  Se3519  2.477   .     S
Se3518 W3592   2.477   .     S
Se3518 W3595   2.477   .     S
Se3519 W3592   2.477   .     S
Se3519 W3595   2.477   .     S
W3520  Se3521  2.477   .     S
W3520  Se3522  2.477   .     S
Se3521 W3595   2.477   .     S
Se3521 W3598   2.477   .     S
Se3522 W3595   2.477   .     S
Se3522 W3598   2.477   .     S
W3523  Se3524  2.477   .     S
W3523  Se3525  2.477   .     S
Se3524 W3598   2.477   .     S
Se3524 W3601   2.477   .     S
Se3525 W3598   2.477   .     S
Se3525 W3601   2.477   .     S
W3526  Se3527  2.477   .     S
W3526  Se3528  2.477   .     S
Se3527 W3601   2.477   .     S
Se3528 W3601   2.477   .     S
W3529  Se3530  2.477   .     S
W3529  Se3531  2.477   .     S
Se3530 W3604   2.477   .     S
Se3530 W3607   2.477   .     S
Se3531 W3604   2.477   .     S
Se3531 W3607   2.477   .     S
W3532  Se3533  2.477   .     S
W3532  Se3534  2.477   .     S
Se3533 W3607   2.477   .     S
Se3533 W3610   2.477   .     S
Se3534 W3607   2.477   .     S
Se3534 W3610   2.477   .     S
W3535  Se3536  2.477   .     S
W3535  Se3537  2.477   .     S
Se3536 W3610   2.477   .     S
Se3536 W3613   2.477   .     S
Se3537 W3610   2.477   .     S
Se3537 W3613   2.477   .     S
W3538  Se3539  2.477   .     S
W3538  Se3540  2.477   .     S
Se3539 W3613   2.477   .     S
Se3539 W3616   2.477   .     S
Se3540 W3613   2.477   .     S
Se3540 W3616   2.477   .     S
W3541  Se3542  2.477   .     S
W3541  Se3543  2.477   .     S
Se3542 W3616   2.477   .     S
Se3542 W3619   2.477   .     S
Se3543 W3616   2.477   .     S
Se3543 W3619   2.477   .     S
W3544  Se3545  2.477   .     S
W3544  Se3546  2.477   .     S
Se3545 W3619   2.477   .     S
Se3545 W3622   2.477   .     S
Se3546 W3619   2.477   .     S
Se3546 W3622   2.477   .     S
W3547  Se3548  2.477   .     S
W3547  Se3549  2.477   .     S
Se3548 W3622   2.477   .     S
Se3548 W3625   2.477   .     S
Se3549 W3622   2.477   .     S
Se3549 W3625   2.477   .     S
W3550  Se3551  2.477   .     S
W3550  Se3552  2.477   .     S
Se3551 W3625   2.477   .     S
Se3551 W3628   2.477   .     S
Se3552 W3625   2.477   .     S
Se3552 W3628   2.477   .     S
W3553  Se3554  2.477   .     S
W3553  Se3555  2.477   .     S
Se3554 W3628   2.477   .     S
Se3554 W3631   2.477   .     S
Se3555 W3628   2.477   .     S
Se3555 W3631   2.477   .     S
W3556  Se3557  2.477   .     S
W3556  Se3558  2.477   .     S
Se3557 W3631   2.477   .     S
Se3557 W3634   2.477   .     S
Se3558 W3631   2.477   .     S
Se3558 W3634   2.477   .     S
W3559  Se3560  2.477   .     S
W3559  Se3561  2.477   .     S
Se3560 W3634   2.477   .     S
Se3560 W3637   2.477   .     S
Se3561 W3634   2.477   .     S
Se3561 W3637   2.477   .     S
W3562  Se3563  2.477   .     S
W3562  Se3564  2.477   .     S
Se3563 W3637   2.477   .     S
Se3563 W3640   2.477   .     S
Se3564 W3637   2.477   .     S
Se3564 W3640   2.477   .     S
W3565  Se3566  2.477   .     S
W3565  Se3567  2.477   .     S
Se3566 W3640   2.477   .     S
Se3566 W3643   2.477   .     S
Se3567 W3640   2.477   .     S
Se3567 W3643   2.477   .     S
W3568  Se3569  2.477   .     S
W3568  Se3570  2.477   .     S
Se3569 W3643   2.477   .     S
Se3569 W3646   2.477   .     S
Se3570 W3643   2.477   .     S
Se3570 W3646   2.477   .     S
W3571  Se3572  2.477   .     S
W3571  Se3573  2.477   .     S
Se3572 W3646   2.477   .     S
Se3572 W3649   2.477   .     S
Se3573 W3646   2.477   .     S
Se3573 W3649   2.477   .     S
W3574  Se3575  2.477   .     S
W3574  Se3576  2.477   .     S
Se3575 W3649   2.477   .     S
Se3575 W3652   2.477   .     S
Se3576 W3649   2.477   .     S
Se3576 W3652   2.477   .     S
W3577  Se3578  2.477   .     S
W3577  Se3579  2.477   .     S
Se3578 W3652   2.477   .     S
Se3578 W3655   2.477   .     S
Se3579 W3652   2.477   .     S
Se3579 W3655   2.477   .     S
W3580  Se3581  2.477   .     S
W3580  Se3582  2.477   .     S
Se3581 W3655   2.477   .     S
Se3581 W3658   2.477   .     S
Se3582 W3655   2.477   .     S
Se3582 W3658   2.477   .     S
W3583  Se3584  2.477   .     S
W3583  Se3585  2.477   .     S
Se3584 W3658   2.477   .     S
Se3584 W3661   2.477   .     S
Se3585 W3658   2.477   .     S
Se3585 W3661   2.477   .     S
W3586  Se3587  2.477   .     S
W3586  Se3588  2.477   .     S
Se3587 W3661   2.477   .     S
Se3587 W3664   2.477   .     S
Se3588 W3661   2.477   .     S
Se3588 W3664   2.477   .     S
W3589  Se3590  2.477   .     S
W3589  Se3591  2.477   .     S
Se3590 W3664   2.477   .     S
Se3590 W3667   2.477   .     S
Se3591 W3664   2.477   .     S
Se3591 W3667   2.477   .     S
W3592  Se3593  2.477   .     S
W3592  Se3594  2.477   .     S
Se3593 W3667   2.477   .     S
Se3593 W3670   2.477   .     S
Se3594 W3667   2.477   .     S
Se3594 W3670   2.477   .     S
W3595  Se3596  2.477   .     S
W3595  Se3597  2.477   .     S
Se3596 W3670   2.477   .     S
Se3596 W3673   2.477   .     S
Se3597 W3670   2.477   .     S
Se3597 W3673   2.477   .     S
W3598  Se3599  2.477   .     S
W3598  Se3600  2.477   .     S
Se3599 W3673   2.477   .     S
Se3599 W3676   2.477   .     S
Se3600 W3673   2.477   .     S
Se3600 W3676   2.477   .     S
W3601  Se3602  2.477   .     S
W3601  Se3603  2.477   .     S
Se3602 W3676   2.477   .     S
Se3603 W3676   2.477   .     S
W3604  Se3605  2.477   .     S
W3604  Se3606  2.477   .     S
Se3605 W3679   2.477   .     S
Se3605 W3682   2.477   .     S
Se3606 W3679   2.477   .     S
Se3606 W3682   2.477   .     S
W3607  Se3608  2.477   .     S
W3607  Se3609  2.477   .     S
Se3608 W3682   2.477   .     S
Se3608 W3685   2.477   .     S
Se3609 W3682   2.477   .     S
Se3609 W3685   2.477   .     S
W3610  Se3611  2.477   .     S
W3610  Se3612  2.477   .     S
Se3611 W3685   2.477   .     S
Se3611 W3688   2.477   .     S
Se3612 W3685   2.477   .     S
Se3612 W3688   2.477   .     S
W3613  Se3614  2.477   .     S
W3613  Se3615  2.477   .     S
Se3614 W3688   2.477   .     S
Se3614 W3691   2.477   .     S
Se3615 W3688   2.477   .     S
Se3615 W3691   2.477   .     S
W3616  Se3617  2.477   .     S
W3616  Se3618  2.477   .     S
Se3617 W3691   2.477   .     S
Se3617 W3694   2.477   .     S
Se3618 W3691   2.477   .     S
Se3618 W3694   2.477   .     S
W3619  Se3620  2.477   .     S
W3619  Se3621  2.477   .     S
Se3620 W3694   2.477   .     S
Se3620 W3697   2.477   .     S
Se3621 W3694   2.477   .     S
Se3621 W3697   2.477   .     S
W3622  Se3623  2.477   .     S
W3622  Se3624  2.477   .     S
Se3623 W3697   2.477   .     S
Se3623 W3700   2.477   .     S
Se3624 W3697   2.477   .     S
Se3624 W3700   2.477   .     S
W3625  Se3626  2.477   .     S
W3625  Se3627  2.477   .     S
Se3626 W3700   2.477   .     S
Se3626 W3703   2.477   .     S
Se3627 W3700   2.477   .     S
Se3627 W3703   2.477   .     S
W3628  Se3629  2.477   .     S
W3628  Se3630  2.477   .     S
Se3629 W3703   2.477   .     S
Se3629 W3706   2.477   .     S
Se3630 W3703   2.477   .     S
Se3630 W3706   2.477   .     S
W3631  Se3632  2.477   .     S
W3631  Se3633  2.477   .     S
Se3632 W3706   2.477   .     S
Se3632 W3709   2.477   .     S
Se3633 W3706   2.477   .     S
Se3633 W3709   2.477   .     S
W3634  Se3635  2.477   .     S
W3634  Se3636  2.477   .     S
Se3635 W3709   2.477   .     S
Se3635 W3712   2.477   .     S
Se3636 W3709   2.477   .     S
Se3636 W3712   2.477   .     S
W3637  Se3638  2.477   .     S
W3637  Se3639  2.477   .     S
Se3638 W3712   2.477   .     S
Se3638 W3715   2.477   .     S
Se3639 W3712   2.477   .     S
Se3639 W3715   2.477   .     S
W3640  Se3641  2.477   .     S
W3640  Se3642  2.477   .     S
Se3641 W3715   2.477   .     S
Se3641 W3718   2.477   .     S
Se3642 W3715   2.477   .     S
Se3642 W3718   2.477   .     S
W3643  Se3644  2.477   .     S
W3643  Se3645  2.477   .     S
Se3644 W3718   2.477   .     S
Se3644 W3721   2.477   .     S
Se3645 W3718   2.477   .     S
Se3645 W3721   2.477   .     S
W3646  Se3647  2.477   .     S
W3646  Se3648  2.477   .     S
Se3647 W3721   2.477   .     S
Se3647 W3724   2.477   .     S
Se3648 W3721   2.477   .     S
Se3648 W3724   2.477   .     S
W3649  Se3650  2.477   .     S
W3649  Se3651  2.477   .     S
Se3650 W3724   2.477   .     S
Se3650 W3727   2.477   .     S
Se3651 W3724   2.477   .     S
Se3651 W3727   2.477   .     S
W3652  Se3653  2.477   .     S
W3652  Se3654  2.477   .     S
Se3653 W3727   2.477   .     S
Se3653 W3730   2.477   .     S
Se3654 W3727   2.477   .     S
Se3654 W3730   2.477   .     S
W3655  Se3656  2.477   .     S
W3655  Se3657  2.477   .     S
Se3656 W3730   2.477   .     S
Se3656 W3733   2.477   .     S
Se3657 W3730   2.477   .     S
Se3657 W3733   2.477   .     S
W3658  Se3659  2.477   .     S
W3658  Se3660  2.477   .     S
Se3659 W3733   2.477   .     S
Se3659 W3736   2.477   .     S
Se3660 W3733   2.477   .     S
Se3660 W3736   2.477   .     S
W3661  Se3662  2.477   .     S
W3661  Se3663  2.477   .     S
Se3662 W3736   2.477   .     S
Se3662 W3739   2.477   .     S
Se3663 W3736   2.477   .     S
Se3663 W3739   2.477   .     S
W3664  Se3665  2.477   .     S
W3664  Se3666  2.477   .     S
Se3665 W3739   2.477   .     S
Se3665 W3742   2.477   .     S
Se3666 W3739   2.477   .     S
Se3666 W3742   2.477   .     S
W3667  Se3668  2.477   .     S
W3667  Se3669  2.477   .     S
Se3668 W3742   2.477   .     S
Se3668 W3745   2.477   .     S
Se3669 W3742   2.477   .     S
Se3669 W3745   2.477   .     S
W3670  Se3671  2.477   .     S
W3670  Se3672  2.477   .     S
Se3671 W3745   2.477   .     S
Se3671 W3748   2.477   .     S
Se3672 W3745   2.477   .     S
Se3672 W3748   2.477   .     S
W3673  Se3674  2.477   .     S
W3673  Se3675  2.477   .     S
Se3674 W3748   2.477   .     S
Se3674 W3751   2.477   .     S
Se3675 W3748   2.477   .     S
Se3675 W3751   2.477   .     S
W3676  Se3677  2.477   .     S
W3676  Se3678  2.477   .     S
Se3677 W3751   2.477   .     S
Se3678 W3751   2.477   .     S
W3679  Se3680  2.477   .     S
W3679  Se3681  2.477   .     S
Se3680 W3754   2.477   .     S
Se3680 W3757   2.477   .     S
Se3681 W3754   2.477   .     S
Se3681 W3757   2.477   .     S
W3682  Se3683  2.477   .     S
W3682  Se3684  2.477   .     S
Se3683 W3757   2.477   .     S
Se3683 W3760   2.477   .     S
Se3684 W3757   2.477   .     S
Se3684 W3760   2.477   .     S
W3685  Se3686  2.477   .     S
W3685  Se3687  2.477   .     S
Se3686 W3760   2.477   .     S
Se3686 W3763   2.477   .     S
Se3687 W3760   2.477   .     S
Se3687 W3763   2.477   .     S
W3688  Se3689  2.477   .     S
W3688  Se3690  2.477   .     S
Se3689 W3763   2.477   .     S
Se3689 W3766   2.477   .     S
Se3690 W3763   2.477   .     S
Se3690 W3766   2.477   .     S
W3691  Se3692  2.477   .     S
W3691  Se3693  2.477   .     S
Se3692 W3766   2.477   .     S
Se3692 W3769   2.477   .     S
Se3693 W3766   2.477   .     S
Se3693 W3769   2.477   .     S
W3694  Se3695  2.477   .     S
W3694  Se3696  2.477   .     S
Se3695 W3769   2.477   .     S
Se3695 W3772   2.477   .     S
Se3696 W3769   2.477   .     S
Se3696 W3772   2.477   .     S
W3697  Se3698  2.477   .     S
W3697  Se3699  2.477   .     S
Se3698 W3772   2.477   .     S
Se3698 W3775   2.477   .     S
Se3699 W3772   2.477   .     S
Se3699 W3775   2.477   .     S
W3700  Se3701  2.477   .     S
W3700  Se3702  2.477   .     S
Se3701 W3775   2.477   .     S
Se3701 W3778   2.477   .     S
Se3702 W3775   2.477   .     S
Se3702 W3778   2.477   .     S
W3703  Se3704  2.477   .     S
W3703  Se3705  2.477   .     S
Se3704 W3778   2.477   .     S
Se3704 W3781   2.477   .     S
Se3705 W3778   2.477   .     S
Se3705 W3781   2.477   .     S
W3706  Se3707  2.477   .     S
W3706  Se3708  2.477   .     S
Se3707 W3781   2.477   .     S
Se3707 W3784   2.477   .     S
Se3708 W3781   2.477   .     S
Se3708 W3784   2.477   .     S
W3709  Se3710  2.477   .     S
W3709  Se3711  2.477   .     S
Se3710 W3784   2.477   .     S
Se3710 W3787   2.477   .     S
Se3711 W3784   2.477   .     S
Se3711 W3787   2.477   .     S
W3712  Se3713  2.477   .     S
W3712  Se3714  2.477   .     S
Se3713 W3787   2.477   .     S
Se3713 W3790   2.477   .     S
Se3714 W3787   2.477   .     S
Se3714 W3790   2.477   .     S
W3715  Se3716  2.477   .     S
W3715  Se3717  2.477   .     S
Se3716 W3790   2.477   .     S
Se3716 W3793   2.477   .     S
Se3717 W3790   2.477   .     S
Se3717 W3793   2.477   .     S
W3718  Se3719  2.477   .     S
W3718  Se3720  2.477   .     S
Se3719 W3793   2.477   .     S
Se3719 W3796   2.477   .     S
Se3720 W3793   2.477   .     S
Se3720 W3796   2.477   .     S
W3721  Se3722  2.477   .     S
W3721  Se3723  2.477   .     S
Se3722 W3796   2.477   .     S
Se3722 W3799   2.477   .     S
Se3723 W3796   2.477   .     S
Se3723 W3799   2.477   .     S
W3724  Se3725  2.477   .     S
W3724  Se3726  2.477   .     S
Se3725 W3799   2.477   .     S
Se3725 W3802   2.477   .     S
Se3726 W3799   2.477   .     S
Se3726 W3802   2.477   .     S
W3727  Se3728  2.477   .     S
W3727  Se3729  2.477   .     S
Se3728 W3802   2.477   .     S
Se3728 W3805   2.477   .     S
Se3729 W3802   2.477   .     S
Se3729 W3805   2.477   .     S
W3730  Se3731  2.477   .     S
W3730  Se3732  2.477   .     S
Se3731 W3805   2.477   .     S
Se3731 W3808   2.477   .     S
Se3732 W3805   2.477   .     S
Se3732 W3808   2.477   .     S
W3733  Se3734  2.477   .     S
W3733  Se3735  2.477   .     S
Se3734 W3808   2.477   .     S
Se3734 W3811   2.477   .     S
Se3735 W3808   2.477   .     S
Se3735 W3811   2.477   .     S
W3736  Se3737  2.477   .     S
W3736  Se3738  2.477   .     S
Se3737 W3811   2.477   .     S
Se3737 W3814   2.477   .     S
Se3738 W3811   2.477   .     S
Se3738 W3814   2.477   .     S
W3739  Se3740  2.477   .     S
W3739  Se3741  2.477   .     S
Se3740 W3814   2.477   .     S
Se3740 W3817   2.477   .     S
Se3741 W3814   2.477   .     S
Se3741 W3817   2.477   .     S
W3742  Se3743  2.477   .     S
W3742  Se3744  2.477   .     S
Se3743 W3817   2.477   .     S
Se3743 W3820   2.477   .     S
Se3744 W3817   2.477   .     S
Se3744 W3820   2.477   .     S
W3745  Se3746  2.477   .     S
W3745  Se3747  2.477   .     S
Se3746 W3820   2.477   .     S
Se3746 W3823   2.477   .     S
Se3747 W3820   2.477   .     S
Se3747 W3823   2.477   .     S
W3748  Se3749  2.477   .     S
W3748  Se3750  2.477   .     S
Se3749 W3823   2.477   .     S
Se3749 W3826   2.477   .     S
Se3750 W3823   2.477   .     S
Se3750 W3826   2.477   .     S
W3751  Se3752  2.477   .     S
W3751  Se3753  2.477   .     S
Se3752 W3826   2.477   .     S
Se3753 W3826   2.477   .     S
W3754  Se3755  2.477   .     S
W3754  Se3756  2.477   .     S
Se3755 W3829   2.477   .     S
Se3755 W3832   2.477   .     S
Se3756 W3829   2.477   .     S
Se3756 W3832   2.477   .     S
W3757  Se3758  2.477   .     S
W3757  Se3759  2.477   .     S
Se3758 W3832   2.477   .     S
Se3758 W3835   2.477   .     S
Se3759 W3832   2.477   .     S
Se3759 W3835   2.477   .     S
W3760  Se3761  2.477   .     S
W3760  Se3762  2.477   .     S
Se3761 W3835   2.477   .     S
Se3761 W3838   2.477   .     S
Se3762 W3835   2.477   .     S
Se3762 W3838   2.477   .     S
W3763  Se3764  2.477   .     S
W3763  Se3765  2.477   .     S
Se3764 W3838   2.477   .     S
Se3764 W3841   2.477   .     S
Se3765 W3838   2.477   .     S
Se3765 W3841   2.477   .     S
W3766  Se3767  2.477   .     S
W3766  Se3768  2.477   .     S
Se3767 W3841   2.477   .     S
Se3767 W3844   2.477   .     S
Se3768 W3841   2.477   .     S
Se3768 W3844   2.477   .     S
W3769  Se3770  2.477   .     S
W3769  Se3771  2.477   .     S
Se3770 W3844   2.477   .     S
Se3770 W3847   2.477   .     S
Se3771 W3844   2.477   .     S
Se3771 W3847   2.477   .     S
W3772  Se3773  2.477   .     S
W3772  Se3774  2.477   .     S
Se3773 W3847   2.477   .     S
Se3773 W3850   2.477   .     S
Se3774 W3847   2.477   .     S
Se3774 W3850   2.477   .     S
W3775  Se3776  2.477   .     S
W3775  Se3777  2.477   .     S
Se3776 W3850   2.477   .     S
Se3776 W3853   2.477   .     S
Se3777 W3850   2.477   .     S
Se3777 W3853   2.477   .     S
W3778  Se3779  2.477   .     S
W3778  Se3780  2.477   .     S
Se3779 W3853   2.477   .     S
Se3779 W3856   2.477   .     S
Se3780 W3853   2.477   .     S
Se3780 W3856   2.477   .     S
W3781  Se3782  2.477   .     S
W3781  Se3783  2.477   .     S
Se3782 W3856   2.477   .     S
Se3782 W3859   2.477   .     S
Se3783 W3856   2.477   .     S
Se3783 W3859   2.477   .     S
W3784  Se3785  2.477   .     S
W3784  Se3786  2.477   .     S
Se3785 W3859   2.477   .     S
Se3785 W3862   2.477   .     S
Se3786 W3859   2.477   .     S
Se3786 W3862   2.477   .     S
W3787  Se3788  2.477   .     S
W3787  Se3789  2.477   .     S
Se3788 W3862   2.477   .     S
Se3788 W3865   2.477   .     S
Se3789 W3862   2.477   .     S
Se3789 W3865   2.477   .     S
W3790  Se3791  2.477   .     S
W3790  Se3792  2.477   .     S
Se3791 W3865   2.477   .     S
Se3791 W3868   2.477   .     S
Se3792 W3865   2.477   .     S
Se3792 W3868   2.477   .     S
W3793  Se3794  2.477   .     S
W3793  Se3795  2.477   .     S
Se3794 W3868   2.477   .     S
Se3794 W3871   2.477   .     S
Se3795 W3868   2.477   .     S
Se3795 W3871   2.477   .     S
W3796  Se3797  2.477   .     S
W3796  Se3798  2.477   .     S
Se3797 W3871   2.477   .     S
Se3797 W3874   2.477   .     S
Se3798 W3871   2.477   .     S
Se3798 W3874   2.477   .     S
W3799  Se3800  2.477   .     S
W3799  Se3801  2.477   .     S
Se3800 W3874   2.477   .     S
Se3800 W3877   2.477   .     S
Se3801 W3874   2.477   .     S
Se3801 W3877   2.477   .     S
W3802  Se3803  2.477   .     S
W3802  Se3804  2.477   .     S
Se3803 W3877   2.477   .     S
Se3803 W3880   2.477   .     S
Se3804 W3877   2.477   .     S
Se3804 W3880   2.477   .     S
W3805  Se3806  2.477   .     S
W3805  Se3807  2.477   .     S
Se3806 W3880   2.477   .     S
Se3806 W3883   2.477   .     S
Se3807 W3880   2.477   .     S
Se3807 W3883   2.477   .     S
W3808  Se3809  2.477   .     S
W3808  Se3810  2.477   .     S
Se3809 W3883   2.477   .     S
Se3809 W3886   2.477   .     S
Se3810 W3883   2.477   .     S
Se3810 W3886   2.477   .     S
W3811  Se3812  2.477   .     S
W3811  Se3813  2.477   .     S
Se3812 W3886   2.477   .     S
Se3812 W3889   2.477   .     S
Se3813 W3886   2.477   .     S
Se3813 W3889   2.477   .     S
W3814  Se3815  2.477   .     S
W3814  Se3816  2.477   .     S
Se3815 W3889   2.477   .     S
Se3815 W3892   2.477   .     S
Se3816 W3889   2.477   .     S
Se3816 W3892   2.477   .     S
W3817  Se3818  2.477   .     S
W3817  Se3819  2.477   .     S
Se3818 W3892   2.477   .     S
Se3818 W3895   2.477   .     S
Se3819 W3892   2.477   .     S
Se3819 W3895   2.477   .     S
W3820  Se3821  2.477   .     S
W3820  Se3822  2.477   .     S
Se3821 W3895   2.477   .     S
Se3821 W3898   2.477   .     S
Se3822 W3895   2.477   .     S
Se3822 W3898   2.477   .     S
W3823  Se3824  2.477   .     S
W3823  Se3825  2.477   .     S
Se3824 W3898   2.477   .     S
Se3824 W3901   2.477   .     S
Se3825 W3898   2.477   .     S
Se3825 W3901   2.477   .     S
W3826  Se3827  2.477   .     S
W3826  Se3828  2.477   .     S
Se3827 W3901   2.477   .     S
Se3828 W3901   2.477   .     S
W3829  Se3830  2.477   .     S
W3829  Se3831  2.477   .     S
W3832  Se3833  2.477   .     S
W3832  Se3834  2.477   .     S
W3835  Se3836  2.477   .     S
W3835  Se3837  2.477   .     S
W3838  Se3839  2.477   .     S
W3838  Se3840  2.477   .     S
W3841  Se3842  2.477   .     S
W3841  Se3843  2.477   .     S
W3844  Se3845  2.477   .     S
W3844  Se3846  2.477   .     S
W3847  Se3848  2.477   .     S
W3847  Se3849  2.477   .     S
W3850  Se3851  2.477   .     S
W3850  Se3852  2.477   .     S
W3853  Se3854  2.477   .     S
W3853  Se3855  2.477   .     S
W3856  Se3857  2.477   .     S
W3856  Se3858  2.477   .     S
W3859  Se3860  2.477   .     S
W3859  Se3861  2.477   .     S
W3862  Se3863  2.477   .     S
W3862  Se3864  2.477   .     S
W3865  Se3866  2.477   .     S
W3865  Se3867  2.477   .     S
W3868  Se3869  2.477   .     S
W3868  Se3870  2.477   .     S
W3871  Se3872  2.477   .     S
W3871  Se3873  2.477   .     S
W3874  Se3875  2.477   .     S
W3874  Se3876  2.477   .     S
W3877  Se3878  2.477   .     S
W3877  Se3879  2.477   .     S
W3880  Se3881  2.477   .     S
W3880  Se3882  2.477   .     S
W3883  Se3884  2.477   .     S
W3883  Se3885  2.477   .     S
W3886  Se3887  2.477   .     S
W3886  Se3888  2.477   .     S
W3889  Se3890  2.477   .     S
W3889  Se3891  2.477   .     S
W3892  Se3893  2.477   .     S
W3892  Se3894  2.477   .     S
W3895  Se3896  2.477   .     S
W3895  Se3897  2.477   .     S
W3898  Se3899  2.477   .     S
W3898  Se3900  2.477   .     S
W3901  Se3902  2.477   .     S
W3901  Se3903  2.477   .     S
